
**** 04/15/23 19:52:58 ******* PSpice 17.4.0 (Nov 2018) ******* ID# 0 ********

 ** Profile: "SCHEMATIC1-time_potsweep"  [ D:\Orcad Projects\prep5_analog2_lab\prep5_analog2_lab-PSpiceFiles\SCHEMATIC1\time_potsweep


 ****     CIRCUIT DESCRIPTION


******************************************************************************




** Creating circuit file "time_potsweep.cir" 
** WARNING: THIS AUTOMATICALLY GENERATED FILE MAY BE OVERWRITTEN BY SUBSEQUENT SIMULATIONS

*Libraries: 
* Profile Libraries :
* Local Libraries :
* From [PSPICE NETLIST] section of C:\Users\sixsi\AppData\Roaming\SPB_Data\cdssetup\OrCAD_PSpice\17.4.0\PSpice.ini file:
.lib "nom.lib" 

*Analysis directives: 
.TRAN  0 3m 0 1u SKIPBP 
.STEP LIN PARAM pot_sweep 0 1.1 1 
.OPTIONS ADVCONV
.PROBE64 V(alias(*)) I(alias(*)) W(alias(*)) D(alias(*)) NOISE(alias(*)) 
.INC "..\SCHEMATIC1.net" 



**** INCLUDING SCHEMATIC1.net ****
* source PREP5_ANALOG2_LAB
V_V1         VP GND 15V
V_V2         GND VN 15V
R_R1         N00382 N00386  1Meg TC=0,0 
R_R2         N00386 VOUT  10k TC=0,0 
R_R3         N00424 N00382  19k TC=0,0 
X_R5         N00386 N00386 N03204 POT PARAMS: SET={pot_sweep} VALUE=10Meg
V_V3         VIN- 0  AC 0.5
+SIN 0 0.5 1k 0 0 0
R_R6         N00424 N03204  1k TC=0,0 
X_U1         VIN- N00424 VP VN N00382 uA741
X_U2         0 N00386 VP VN VOUT uA741
.PARAM  pot_sweep=0.5

**** RESUMING time_potsweep.cir ****
.END

**** 04/15/23 19:52:58 ******* PSpice 17.4.0 (Nov 2018) ******* ID# 0 ********

 ** Profile: "SCHEMATIC1-time_potsweep"  [ D:\Orcad Projects\prep5_analog2_lab\prep5_analog2_lab-PSpiceFiles\SCHEMATIC1\time_potsweep


 ****     Diode MODEL PARAMETERS


******************************************************************************




               X_U1.dx         X_U1.dy         X_U2.dx         X_U2.dy         
          IS  800.000000E-18  800.000000E-18  800.000000E-18  800.000000E-18 
          RS    1               1.000000E-03    1               1.000000E-03 
         CJO                   10.000000E-12                   10.000000E-12 


**** 04/15/23 19:52:58 ******* PSpice 17.4.0 (Nov 2018) ******* ID# 0 ********

 ** Profile: "SCHEMATIC1-time_potsweep"  [ D:\Orcad Projects\prep5_analog2_lab\prep5_analog2_lab-PSpiceFiles\SCHEMATIC1\time_potsweep


 ****     BJT MODEL PARAMETERS


******************************************************************************




               X_U1.qx         X_U2.qx         
               NPN             NPN             
       LEVEL    1               1            
          IS  800.000000E-18  800.000000E-18 
          BF   93.75           93.75         
          NF    1               1            
          BR    1               1            
          NR    1               1            
         ISS    0               0            
          RE    0               0            
          RC    0               0            
         CJE    0               0            
         VJE     .75             .75         
         CJC    0               0            
         VJC     .75             .75         
         MJC     .33             .33         
        XCJC    1               1            
         CJS    0               0            
         VJS     .75             .75         
          KF    0               0            
          AF    1               1            
          CN    2.42            2.42         
           D     .87             .87         



          JOB CONCLUDED

**** 04/15/23 19:52:58 ******* PSpice 17.4.0 (Nov 2018) ******* ID# 0 ********

 ** Profile: "SCHEMATIC1-time_potsweep"  [ D:\Orcad Projects\prep5_analog2_lab\prep5_analog2_lab-PSpiceFiles\SCHEMATIC1\time_potsweep


 ****     JOB STATISTICS SUMMARY

 ****     CURRENT STEP                     PARAM POT_SWEEP =    1     


******************************************************************************



  License check-out time            =     2414.03
  Total job time (using Solver 1)   =         .34
