
**** 01/01/24 01:14:39 ******* PSpice 17.4.0 (Nov 2018) ******* ID# 0 ********

 ** Profile: "SCHEMATIC1-q1"  [ c:\cadence\my projects\comm_lab\comm_lab_prep1-pspicefiles\schematic1\q1.sim ] 


 ****     CIRCUIT DESCRIPTION


******************************************************************************




** Creating circuit file "q1.cir" 
** WARNING: THIS AUTOMATICALLY GENERATED FILE MAY BE OVERWRITTEN BY SUBSEQUENT SIMULATIONS

*Libraries: 
* Profile Libraries :
* Local Libraries :
* From [PSPICE NETLIST] section of C:\Users\sixsi\AppData\Roaming\SPB_Data\cdssetup\OrCAD_PSpice\17.4.0\PSpice.ini file:
.lib "nom.lib" 

*Analysis directives: 
.TRAN  0 40u 0 
.OPTIONS ADVCONV
.PROBE64 V(alias(*)) I(alias(*)) W(alias(*)) D(alias(*)) NOISE(alias(*)) 
.INC "..\SCHEMATIC1.net" 



**** INCLUDING SCHEMATIC1.net ****
* source COMM_LAB_PREP1
R_R1         VIN N00155  1k TC=0,0 
R_R2         GND N00155  100k TC=0,0 
E_BPASS1         VOUT 0 CHEBYSHEV {V(N00155)} BP (440kHz 445kHz 455kHz 460kHz)
+  0.1dB 0.2dB
R_R3         GND VOUT  1MEG TC=0,0 
V_V1         VIN GND  
+PULSE 0 0.1 0 1n 1n 1.11u 2.22u

**** RESUMING q1.cir ****
.END

**** 01/01/24 01:14:39 ******* PSpice 17.4.0 (Nov 2018) ******* ID# 0 ********

 ** Profile: "SCHEMATIC1-q1"  [ c:\cadence\my projects\comm_lab\comm_lab_prep1-pspicefiles\schematic1\q1.sim ] 


 ****     INITIAL TRANSIENT SOLUTION       TEMPERATURE =   27.000 DEG C


******************************************************************************



 NODE   VOLTAGE     NODE   VOLTAGE     NODE   VOLTAGE     NODE   VOLTAGE


(  GND)    0.0000  (  VIN)    0.0000  ( VOUT)    0.0000  (N00155)    0.0000 




    VOLTAGE SOURCE CURRENTS
    NAME         CURRENT

    V_V1         0.000E+00

    TOTAL POWER DISSIPATION   0.00E+00  WATTS



          JOB CONCLUDED

**** 01/01/24 01:14:39 ******* PSpice 17.4.0 (Nov 2018) ******* ID# 0 ********

 ** Profile: "SCHEMATIC1-q1"  [ c:\cadence\my projects\comm_lab\comm_lab_prep1-pspicefiles\schematic1\q1.sim ] 


 ****     JOB STATISTICS SUMMARY


******************************************************************************



  License check-out time            =        9.28
  Total job time (using Solver 1)   =         .05
