
**** 10/23/22 19:02:52 ******* PSpice 17.4.0 (Nov 2018) ******* ID# 0 ********

 ** Profile: "SCHEMATIC1-prep_q3"  [ C:\Cadence\My projects\Lab_analogCAD_exp1\Lab_analogCAD_exp1-PSpiceFiles\SCHEMATIC1\prep_q3.sim 


 ****     CIRCUIT DESCRIPTION


******************************************************************************




** Creating circuit file "prep_q3.cir" 
** WARNING: THIS AUTOMATICALLY GENERATED FILE MAY BE OVERWRITTEN BY SUBSEQUENT SIMULATIONS

*Libraries: 
* Profile Libraries :
* Local Libraries :
* From [PSPICE NETLIST] section of C:\Users\sixsi\AppData\Roaming\SPB_Data\cdssetup\OrCAD_PSpice\17.4.0\PSpice.ini file:
.lib "nom.lib" 

*Analysis directives: 
.TRAN  0 10m 0 10u 
.STEP LIN RES R4(Value) 10 4k 10 
-----------------$
ERROR(ORPSIM-16062): Not a valid parameter for model type
.OPTIONS ADVCONV
.PROBE64 V(alias(*)) I(alias(*)) W(alias(*)) D(alias(*)) NOISE(alias(*)) 
.INC "..\SCHEMATIC1.net" 



**** INCLUDING SCHEMATIC1.net ****
* source LAB_ANALOGCAD_EXP1
R_R1         0 N00158  1k TC=0,0 
D_D1         N00149 N00158 Dbreak 
V_V1         N00149 0  AC 5
+SIN 0 5 1k 0 0 0
D_D2         N00579 N00572 D1N754 
D_D3         N00579 0 D1N754 
R_R2         N00563 N00572  1k TC=0,0 
V_V2         N00563 0  AC 10
+SIN 0 10 1k 0 0 0
V_V3         N00891 0  AC 0.25
+SIN 8 0.25 1k 0 0 0
R_R3         N00891 N00901  1k TC=0,0 
D_D4         0 N00901 D1N754 
R_R4         0 N00901  1k TC=0,0 

**** RESUMING prep_q3.cir ****
.END
