
**** 05/04/23 17:11:34 ******* PSpice 17.4.0 (Nov 2018) ******* ID# 0 ********

 ** Profile: "SCHEMATIC1-Q1"  [ D:\Orcad Projects\prep7_digiElecLab\prep7_digiElecLab-PSpiceFiles\SCHEMATIC1\Q1.sim ] 


 ****     CIRCUIT DESCRIPTION


******************************************************************************




** Creating circuit file "Q1.cir" 
** WARNING: THIS AUTOMATICALLY GENERATED FILE MAY BE OVERWRITTEN BY SUBSEQUENT SIMULATIONS

*Libraries: 
* Profile Libraries :
* Local Libraries :
* From [PSPICE NETLIST] section of C:\Users\sixsi\AppData\Roaming\SPB_Data\cdssetup\OrCAD_PSpice\17.4.0\PSpice.ini file:
.lib "nom.lib" 

*Analysis directives: 
.TRAN  0 4m 0 1u 
.WCASE TRAN Vout1 YMAX  OUTPUT ALL VARY BOTH  HI 
------------------$
ERROR(ORPSIM-16295): Invalid Expression: Specify either current(I) or voltage(V) or digital(D).
.OPTIONS ADVCONV
.PROBE64 V(alias(*)) I(alias(*)) W(alias(*)) D(alias(*)) NOISE(alias(*)) 
.INC "..\SCHEMATIC1.net" 



**** INCLUDING SCHEMATIC1.net ****
* source PREP7_DIGIELECLAB
X_U1         0 N00304 +15V -15V VOUT1 uA741
V_V1         +15V 0 15V
V_V2         0 -15V 15V
R_R1         N00304 VOUT1 R_R1 1k TC=0,0 
.model        R_R1 RES R=1     DEV/UNIFORM 5/5% TC1=0 TC2=0
R_R2         N00738 N00304 R_R2 2k TC=0,0 
.model        R_R2 RES R=1     DEV/UNIFORM 5/5% TC1=0 TC2=0
R_R3         N00721 N00304 R_R3 4k TC=0,0 
.model        R_R3 RES R=1     DEV/UNIFORM 5/5% TC1=0 TC2=0
R_R4         N00705 N00304 R_R4 8k TC=0,0 
.model        R_R4 RES R=1     DEV/UNIFORM 5/5% TC1=0 TC2=0
V_V3         N00705 0  
+PULSE 0 5 0 1n 1n 0.5m 1m
V_V4         N00721 0  
+PULSE 0 5 0 1n 1n 1m 2m
V_V5         N00738 0  
+PULSE 0 5 0 1n 1n 2m 4m

**** RESUMING Q1.cir ****
.END
