
**** 03/03/24 14:23:17 ******* PSpice 17.4.0 (Nov 2018) ******* ID# 0 ********

 ** Profile: "SCHEMATIC2-hehehehe"  [ d:\orcad projects\lab10comm\lab10comm-PSpiceFiles\SCHEMATIC2\hehehehe.sim ] 


 ****     CIRCUIT DESCRIPTION


******************************************************************************




** Creating circuit file "hehehehe.cir" 
** WARNING: THIS AUTOMATICALLY GENERATED FILE MAY BE OVERWRITTEN BY SUBSEQUENT SIMULATIONS

*Libraries: 
* Profile Libraries :
* Local Libraries :
* From [PSPICE NETLIST] section of C:\Users\sixsi\AppData\Roaming\SPB_Data\cdssetup\OrCAD_PSpice\17.4.0\PSpice.ini file:
.lib "nom.lib" 

*Analysis directives: 
.TRAN  0 10m 0 10u 
.STEP LIN PARAM freqtest 500 1000 100 
.OPTIONS ADVCONV
.PROBE64 V(alias(*)) I(alias(*)) W(alias(*)) D(alias(*)) NOISE(alias(*)) 
.INC "..\SCHEMATIC2.net" 



**** INCLUDING SCHEMATIC2.net ****
* source LAB10COMM
R_R18         N10409 N10541  33k TC=0,0 
R_R17         AMPLIFIED N10409  33k TC=0,0 
C_C3         N10541 0  10n  TC=0,0 
R_R19         0 VOUT  1Meg TC=0,0 
V_V4         0 NEG 10V
R_R20         N10561 AMPLIFIED  10k TC=0,0 
V_V3         POS 0 10V
R_R15         PWM N10561  10k TC=0,0 
V_V1         SAWTOOTH 0  
+PULSE -4 0 0 199.9u 1n 199.9u 200u
V_V2         VM 0  AC 1
+SIN -2 1 {freqtest} 0 0 0
C_C4         N10409 VOUT  10n  TC=0,0 
X_U1B         VM SAWTOOTH POS 0 PWM LM324
X_U2A         0 N10561 POS NEG AMPLIFIED LM324
X_U2B         N10541 VOUT POS NEG VOUT LM324
.PARAM  freqtest=380

**** RESUMING hehehehe.cir ****
.END

**** 03/03/24 14:23:17 ******* PSpice 17.4.0 (Nov 2018) ******* ID# 0 ********

 ** Profile: "SCHEMATIC2-hehehehe"  [ d:\orcad projects\lab10comm\lab10comm-PSpiceFiles\SCHEMATIC2\hehehehe.sim ] 


 ****     Diode MODEL PARAMETERS


******************************************************************************




               X_U1B.dx        X_U1B.dy        X_U2A.dx        X_U2A.dy        
          IS  800.000000E-18  800.000000E-18  800.000000E-18  800.000000E-18 
          RS    1               1.000000E-03    1               1.000000E-03 
         CJO                   10.000000E-12                   10.000000E-12 


               X_U2B.dx        X_U2B.dy        
          IS  800.000000E-18  800.000000E-18 
          RS    1               1.000000E-03 
         CJO                   10.000000E-12 


**** 03/03/24 14:23:17 ******* PSpice 17.4.0 (Nov 2018) ******* ID# 0 ********

 ** Profile: "SCHEMATIC2-hehehehe"  [ d:\orcad projects\lab10comm\lab10comm-PSpiceFiles\SCHEMATIC2\hehehehe.sim ] 


 ****     BJT MODEL PARAMETERS


******************************************************************************




               X_U1B.qx        X_U2A.qx        X_U2B.qx        
               PNP             PNP             PNP             
       LEVEL    1               1               1            
          IS  800.000000E-18  800.000000E-18  800.000000E-18 
          BF  166.7           166.7           166.7          
          NF    1               1               1            
          BR    1               1               1            
          NR    1               1               1            
         ISS    0               0               0            
          RE    0               0               0            
          RC    0               0               0            
         CJE    0               0               0            
         VJE     .75             .75             .75         
         CJC    0               0               0            
         VJC     .75             .75             .75         
         MJC     .33             .33             .33         
        XCJC    1               1               1            
         CJS    0               0               0            
         VJS     .75             .75             .75         
          KF    0               0               0            
          AF    1               1               1            
          CN    2.2             2.2             2.2          
           D     .52             .52             .52         


**** 03/03/24 14:23:17 ******* PSpice 17.4.0 (Nov 2018) ******* ID# 0 ********

 ** Profile: "SCHEMATIC2-hehehehe"  [ d:\orcad projects\lab10comm\lab10comm-PSpiceFiles\SCHEMATIC2\hehehehe.sim ] 


 ****     Current Controlled Switch MODEL PARAMETERS


******************************************************************************




               X_U1B.sw2       X_U1B.sw1       X_U1B.sw3       X_U1B.sw4       
         RON    1               1               1               1            
        ROFF   10.000000E+06   10.000000E+06   10.000000E+06   10.000000E+06 
         ION    0              -1.000000E-06   -1.000000E-06    0            
        IOFF   -1.000000E-06    0               0              -1.000000E-06 


               X_U2A.sw2       X_U2A.sw1       X_U2A.sw3       X_U2A.sw4       
         RON    1               1               1               1            
        ROFF   10.000000E+06   10.000000E+06   10.000000E+06   10.000000E+06 
         ION    0              -1.000000E-06   -1.000000E-06    0            
        IOFF   -1.000000E-06    0               0              -1.000000E-06 


               X_U2B.sw2       X_U2B.sw1       X_U2B.sw3       X_U2B.sw4       
         RON    1               1               1               1            
        ROFF   10.000000E+06   10.000000E+06   10.000000E+06   10.000000E+06 
         ION    0              -1.000000E-06   -1.000000E-06    0            
        IOFF   -1.000000E-06    0               0              -1.000000E-06 


WARNING(ORPSIM-15452): Pulse Period < (Rise Time + Fall Time + Pulse Width) for V_V1.

WARNING(ORPSIM-15452): Pulse Period < (Rise Time + Fall Time + Pulse Width) for V_V1.

WARNING(ORPSIM-15452): Pulse Period < (Rise Time + Fall Time + Pulse Width) for V_V1.

**** 03/03/24 14:23:17 ******* PSpice 17.4.0 (Nov 2018) ******* ID# 0 ********

 ** Profile: "SCHEMATIC2-hehehehe"  [ d:\orcad projects\lab10comm\lab10comm-PSpiceFiles\SCHEMATIC2\hehehehe.sim ] 


 ****     INITIAL TRANSIENT SOLUTION       TEMPERATURE =   27.000 DEG C

 ****     CURRENT STEP                     PARAM FREQTEST =  500   


******************************************************************************



 NODE   VOLTAGE     NODE   VOLTAGE     NODE   VOLTAGE     NODE   VOLTAGE


(   VM)   -2.0000  (  NEG)  -10.0000  (  POS)   10.0000  (  PWM)     .0057      

( VOUT)    -.0038  (N10409)    -.0050 (N10541)    -.0036 (N10561)-192.4E-06     

(X_U1B.6)   36.7780                   (X_U1B.7)   -2.0291                       

(X_U1B.8)   -2.0291                   (X_U1B.9)    0.0000                       

(X_U1B.a)     .0407                   (X_U1B.b)     .0407                       

(X_U2A.6) 1.237E-06                   (X_U2A.7)    -.0065                       

(X_U2A.8)    -.0065                   (X_U2A.9)    0.0000                       

(X_U2A.a)     .0028                   (X_U2A.b)   -9.9972                       

(X_U2B.6) 707.3E-09                   (X_U2B.7)    -.0038                       

(X_U2B.8)    -.0038                   (X_U2B.9)    0.0000                       

(X_U2B.a)   10.0000                   (X_U2B.b)-1.194E-06                       

(SAWTOOTH)   -4.0000                  (X_U1B.10)   -3.0217                      

(X_U1B.11)   -3.2868                  (X_U1B.12)   -1.3332                      

(X_U1B.13)   -3.2825                  (X_U1B.14)   -2.7899                      

(X_U1B.53)    8.5000                  (X_U1B.54)     .8220                      

(X_U1B.90)  -40.6960                  (X_U1B.91)   40.0000                      

(X_U1B.92)  -40.0000                  (X_U1B.99)    5.0000                      

(X_U2A.10)     .6076                  (X_U2A.11)   -9.9602                      

(X_U2A.12)   -9.9604                  (X_U2A.13)     .5937                      

(X_U2A.14)     .5937                  (X_U2A.53)    8.5000                      

(X_U2A.54)   -9.1780                  (X_U2A.90)-676.7E-06                      

(X_U2A.91)   40.0000                  (X_U2A.92)  -40.0000                      

(X_U2A.99)    0.0000                  (X_U2B.10)     .6040                      

(X_U2B.11)   -9.9602                  (X_U2B.12)   -9.9604                      

(X_U2B.13)     .5901                  (X_U2B.14)     .5902                      

(X_U2B.53)    8.5000                  (X_U2B.54)   -9.1780                      

(X_U2B.90)-48.70E-06                  (X_U2B.91)   40.0000                      

(X_U2B.92)  -40.0000                  (X_U2B.99)    0.0000                      

(AMPLIFIED)    -.0065                 




    VOLTAGE SOURCE CURRENTS
    NAME         CURRENT

    V_V4        -4.489E-03
    V_V3        -5.605E-03
    V_V1         7.609E-04
    V_V2         1.257E-04
    X_U1B.vb     3.678E-04
    X_U1B.vc     8.495E-12
    X_U1B.ve    -4.070E-02
    X_U1B.vlim  -4.070E-02
    X_U1B.vlp   -8.070E-11
    X_U1B.vln    3.882E-04
    X_U2A.vb     1.237E-11
    X_U2A.vc     8.507E-12
    X_U2A.ve     1.043E-11
    X_U2A.vlim  -6.767E-07
    X_U2A.vlp   -4.000E-11
    X_U2A.vln   -4.000E-11
    X_U2B.vb     7.073E-12
    X_U2B.vc     8.505E-12
    X_U2B.ve     1.043E-11
    X_U2B.vlim  -4.870E-08
    X_U2B.vlp   -4.000E-11
    X_U2B.vln   -4.000E-11

    TOTAL POWER DISSIPATION   1.22E-01  WATTS

Reducing minimum delta to make the circuit converge.
Reducing minimum delta to make the circuit converge.
Reducing minimum delta to make the circuit converge.
Reducing minimum delta to make the circuit converge.
Reducing minimum delta to make the circuit converge.

ERROR(ORPSIM-15138): Convergence problem in Transient Analysis at Time =  1.200E-03.
         Time step =  909.5E-21, minimum allowable step size =  1.000E-18

  These voltages failed to converge:

    V(X_U2B.6)                =   508.19uV  \   504.50uV

  These supply currents failed to converge:

    I(X_U1B.ve)               =   -76.59uA  \   -76.70uA
    I(X_U2A.vc)               =  -947.69pA  \   298.31pA
    I(X_U2A.ve)               =   645.74pA  \  -553.88pA
    I(X_U2B.vb)               =    5.082nA  \    5.045nA
    I(X_U2B.vc)               =   406.01nA  \    14.20nA
    I(X_U2B.ve)               =  -410.23nA  \   -18.24nA

  These devices failed to converge:
    X_U2A.dc  X_U2B.dc  



  Last node voltages tried were:

 NODE   VOLTAGE     NODE   VOLTAGE     NODE   VOLTAGE     NODE   VOLTAGE


(   VM)   -2.5878  (  NEG)  -10.0000  (  POS)   10.0000  (  PWM)    9.3157      

( VOUT)   -2.6826  (N10409)   -4.4221 (N10541)   -2.6841 (N10561)-104.5E-06     

(X_U1B.6)  -35.5730                   (X_U1B.7)   11.3500                       

(X_U1B.8)   11.3500                   (X_U1B.9)    0.0000                       

(X_U1B.a)    9.9593                   (X_U1B.b)    -.0407                       

(X_U2A.6)     .0018                   (X_U2A.7)   -9.3704                       

(X_U2A.8)   -9.3704                   (X_U2A.9)    0.0000                       

(X_U2A.a)     .0011                   (X_U2A.b)   -9.9989                       

(X_U2B.6) 508.2E-06                   (X_U2B.7)   -2.6780                       

(X_U2B.8)   -2.6780                   (X_U2B.9)    0.0000                       

(X_U2B.a)    9.9999                   (X_U2B.b)-93.96E-06                       

(SAWTOOTH)    0.0000                  (X_U1B.10)   -1.8634                      

(X_U1B.11)-38.43E-06                  (X_U1B.12)   -1.8931                      

(X_U1B.13)   -1.8634                  (X_U1B.14)   -1.8922                      

(X_U1B.53)    8.5000                  (X_U1B.54)     .8220                      

(X_U1B.90)   40.6950                  (X_U1B.91)   40.0000                      

(X_U1B.92)  -40.0000                  (X_U1B.99)    5.0000                      

(X_U2A.10)     .6076                  (X_U2A.11)   -9.9603                      

(X_U2A.12)   -9.9604                  (X_U2A.13)     .5937                      

(X_U2A.14)     .5938                  (X_U2A.53)    8.5000                      

(X_U2A.54)   -9.1780                  (X_U2A.90)   -1.0799                      

(X_U2A.91)   40.0000                  (X_U2A.92)  -40.0000                      

(X_U2A.99)    0.0000                  (X_U2B.10)   -2.0752                      

(X_U2B.11)   -9.9606                  (X_U2B.12)   -9.9590                      

(X_U2B.13)   -2.0890                  (X_U2B.14)   -2.0895                      

(X_U2B.53)    8.5000                  (X_U2B.54)   -9.1780                      

(X_U2B.90)     .0930                  (X_U2B.91)   40.0000                      

(X_U2B.92)  -40.0000                  (X_U2B.99)    0.0000                      

(AMPLIFIED)   -9.3164                 


**** Interrupt ****
**** Param: RELTOL = 0.001
**** Param: ABSTOL = 1e-12
**** Param: VNTOL = 1e-06
**** Param: GMIN = 1e-12
**** Param: TSTOP = 0.01
**** Param: TMAX = 1e-05
**** Param: ITL1 = 150
**** Param: ITL2 = 20
**** Param: ITL4 = 100
**** Param: AutoConverge = 1
**** Param: AutoConverge.ITL1 = 1000
**** Param: AutoConverge.ITL2 = 1000
**** Param: AutoConverge.ITL4 = 1000
**** Param: AutoConverge.RELTOL = 0.05
**** Param: AutoConverge.ABSTOL = 0.001
**** Param: AutoConverge.VNTOL = 0.001
**** Param: AutoConverge.PIVTOL = 1e-10
**** Param: ADVCONV = 1
**** Param: Current_Simulation = 3
**** Param: METHOD = 0
**** Param: TRTOL = 7
**** Param: STEPGMIN = 0
**** Param: GMINSTEPS = 0
**** Param: ITL6 = 0
**** Param: NOSTEPDEP = 0
**** Param: PTRANSTEP = 0
**** Param: GMINSRC = 0
**** Param: PSEUDOTRAN = 0
**** Param: NOSTEPSRC = 0
Convergence problem in transient analysis at Time =  1.200E-03
         Time step =  909.5E-21, minimum allowable step size =  1.000E-18

  These voltages failed to converge:

    V(X_U2B.6)                =   508.19uV  \   504.50uV

  These supply currents failed to converge:

    I(X_U1B.ve)               =   -76.59uA  \   -76.70uA
    I(X_U2A.vc)               =  -947.69pA  \   298.31pA
    I(X_U2A.ve)               =   645.74pA  \  -553.88pA
    I(X_U2B.vb)               =    5.082nA  \    5.045nA
    I(X_U2B.vc)               =   406.01nA  \    14.20nA
    I(X_U2B.ve)               =  -410.23nA  \   -18.24nA

  These devices failed to converge:
    X_U2A.dc  X_U2B.dc  



  Last node voltages tried were:

 NODE   VOLTAGE     NODE   VOLTAGE     NODE   VOLTAGE     NODE   VOLTAGE


(   VM)   -2.5878  (  NEG)  -10.0000  (  POS)   10.0000  (  PWM)    9.3157      

( VOUT)   -2.6826  (N10409)   -4.4221 (N10541)   -2.6841 (N10561)-104.5E-06     

(X_U1B.6)  -35.5730                   (X_U1B.7)   11.3500                       

(X_U1B.8)   11.3500                   (X_U1B.9)    0.0000                       

(X_U1B.a)    9.9593                   (X_U1B.b)    -.0407                       

(X_U2A.6)     .0018                   (X_U2A.7)   -9.3704                       

(X_U2A.8)   -9.3704                   (X_U2A.9)    0.0000                       

(X_U2A.a)     .0011                   (X_U2A.b)   -9.9989                       

(X_U2B.6) 508.2E-06                   (X_U2B.7)   -2.6780                       

(X_U2B.8)   -2.6780                   (X_U2B.9)    0.0000                       

(X_U2B.a)    9.9999                   (X_U2B.b)-93.96E-06                       

(SAWTOOTH)    0.0000                  (X_U1B.10)   -1.8634                      

(X_U1B.11)-38.43E-06                  (X_U1B.12)   -1.8931                      

(X_U1B.13)   -1.8634                  (X_U1B.14)   -1.8922                      

(X_U1B.53)    8.5000                  (X_U1B.54)     .8220                      

(X_U1B.90)   40.6950                  (X_U1B.91)   40.0000                      

(X_U1B.92)  -40.0000                  (X_U1B.99)    5.0000                      

(X_U2A.10)     .6076                  (X_U2A.11)   -9.9603                      

(X_U2A.12)   -9.9604                  (X_U2A.13)     .5937                      

(X_U2A.14)     .5938                  (X_U2A.53)    8.5000                      

(X_U2A.54)   -9.1780                  (X_U2A.90)   -1.0799                      

(X_U2A.91)   40.0000                  (X_U2A.92)  -40.0000                      

(X_U2A.99)    0.0000                  (X_U2B.10)   -2.0752                      

(X_U2B.11)   -9.9606                  (X_U2B.12)   -9.9590                      

(X_U2B.13)   -2.0890                  (X_U2B.14)   -2.0895                      

(X_U2B.53)    8.5000                  (X_U2B.54)   -9.1780                      

(X_U2B.90)     .0930                  (X_U2B.91)   40.0000                      

(X_U2B.92)  -40.0000                  (X_U2B.99)    0.0000                      

(AMPLIFIED)   -9.3164                 

Resuming Simulation with the following settings
ITL4 = 354
ABSTOL = 1.41e-09
VNTOL = 4.47e-05

Convergence problem in transient analysis at Time =  1.200E-03
         Time step =  447.2E-21, minimum allowable step size =  1.000E-18

  These supply currents failed to converge:

    I(X_U2B.vc)               =   -1.326uA  \   -1.556uA
    I(X_U2B.ve)               =    1.323uA  \    1.553uA

  These devices failed to converge:
    X_U1B.de  X_U2A.dc  



  Last node voltages tried were:

 NODE   VOLTAGE     NODE   VOLTAGE     NODE   VOLTAGE     NODE   VOLTAGE


(   VM)   -2.5878  (  NEG)  -10.0000  (  POS)   10.0000  (  PWM)    9.3157      

( VOUT)   -2.6826  (N10409)   -4.4221 (N10541)   -2.6841 (N10561)-104.5E-06     

(X_U1B.6)  -35.5730                   (X_U1B.7)   11.3500                       

(X_U1B.8)   11.3500                   (X_U1B.9)    0.0000                       

(X_U1B.a)    9.9593                   (X_U1B.b)    -.0407                       

(X_U2A.6)     .0018                   (X_U2A.7)   -9.3704                       

(X_U2A.8)   -9.3704                   (X_U2A.9)    0.0000                       

(X_U2A.a)     .0011                   (X_U2A.b)   -9.9989                       

(X_U2B.6) 491.9E-06                   (X_U2B.7)   -2.6780                       

(X_U2B.8)   -2.6780                   (X_U2B.9)    0.0000                       

(X_U2B.a)    9.9999                   (X_U2B.b)-93.63E-06                       

(SAWTOOTH)    0.0000                  (X_U1B.10)   -1.8634                      

(X_U1B.11)-38.42E-06                  (X_U1B.12)   -1.8931                      

(X_U1B.13)   -1.8634                  (X_U1B.14)   -1.8922                      

(X_U1B.53)    8.5000                  (X_U1B.54)     .8220                      

(X_U1B.90)   40.6950                  (X_U1B.91)   40.0000                      

(X_U1B.92)  -40.0000                  (X_U1B.99)    5.0000                      

(X_U2A.10)     .6076                  (X_U2A.11)   -9.9603                      

(X_U2A.12)   -9.9604                  (X_U2A.13)     .5937                      

(X_U2A.14)     .5938                  (X_U2A.53)    8.5000                      

(X_U2A.54)   -9.1780                  (X_U2A.90)   -1.0799                      

(X_U2A.91)   40.0000                  (X_U2A.92)  -40.0000                      

(X_U2A.99)    0.0000                  (X_U2B.10)   -2.0752                      

(X_U2B.11)   -9.9606                  (X_U2B.12)   -9.9590                      

(X_U2B.13)   -2.0890                  (X_U2B.14)   -2.0895                      

(X_U2B.53)    8.5000                  (X_U2B.54)   -9.1780                      

(X_U2B.90)     .0926                  (X_U2B.91)   40.0000                      

(X_U2B.92)  -40.0000                  (X_U2B.99)    0.0000                      

(AMPLIFIED)   -9.3164                 

Resuming Simulation with the following settings
ITL4 = 354
ABSTOL = 2e-06

Convergence problem in transient analysis at Time =  1.200E-03
         Time step =  908.0E-21, minimum allowable step size =  1.000E-18

  These voltages failed to converge:

    V(SAWTOOTH)               =    -4.000V  \         0V
    V(X_U1B.11)               =    -3.268V  \   -38.43uV
    V(X_U1B.12)               =    -5.161V  \    -1.893V
    V(X_U1B.10)               =    -3.238V  \    -1.863V
    V(X_U1B.13)               =    -3.267V  \    -1.863V
    V(X_U1B.14)               =    -3.238V  \    -1.892V
    V(X_U2B.90)               =    92.09mV  \    92.87mV

  These supply currents failed to converge:

    I(V_V1)                   =    1.604mA  \   -11.22fA
    I(V_V2)                   =   -2.577pA  \   372.46uA
    I(X_U2B.vc)               =   -4.177uA  \   -56.22nA
    I(X_U2B.ve)               =    4.180uA  \    56.32nA

  These devices failed to converge:
    X_U1B.q1  



  Last node voltages tried were:

 NODE   VOLTAGE     NODE   VOLTAGE     NODE   VOLTAGE     NODE   VOLTAGE


(   VM)   -2.5878  (  NEG)  -10.0000  (  POS)   10.0000  (  PWM)    9.3157      

( VOUT)   -2.6826  (N10409)   -4.4221 (N10541)   -2.6841 (N10561)-104.5E-06     

(X_U1B.6)  -35.5730                   (X_U1B.7)   11.3500                       

(X_U1B.8)   11.3500                   (X_U1B.9)    0.0000                       

(X_U1B.a)    9.9593                   (X_U1B.b)    -.0407                       

(X_U2A.6)     .0018                   (X_U2A.7)   -9.3704                       

(X_U2A.8)   -9.3704                   (X_U2A.9)    0.0000                       

(X_U2A.a)     .0011                   (X_U2A.b)   -9.9989                       

(X_U2B.6) 465.0E-06                   (X_U2B.7)   -2.6780                       

(X_U2B.8)   -2.6780                   (X_U2B.9)    0.0000                       

(X_U2B.a)    9.9999                   (X_U2B.b)-93.09E-06                       

(SAWTOOTH)   -4.0000                  (X_U1B.10)   -3.2384                      

(X_U1B.11)   -3.2675                  (X_U1B.12)   -5.1605                      

(X_U1B.13)   -3.2674                  (X_U1B.14)   -3.2384                      

(X_U1B.53)    8.5000                  (X_U1B.54)     .8220                      

(X_U1B.90)   40.6950                  (X_U1B.91)   40.0000                      

(X_U1B.92)  -40.0000                  (X_U1B.99)    5.0000                      

(X_U2A.10)     .6076                  (X_U2A.11)   -9.9603                      

(X_U2A.12)   -9.9604                  (X_U2A.13)     .5937                      

(X_U2A.14)     .5938                  (X_U2A.53)    8.5000                      

(X_U2A.54)   -9.1780                  (X_U2A.90)   -1.0799                      

(X_U2A.91)   40.0000                  (X_U2A.92)  -40.0000                      

(X_U2A.99)    0.0000                  (X_U2B.10)   -2.0752                      

(X_U2B.11)   -9.9606                  (X_U2B.12)   -9.9590                      

(X_U2B.13)   -2.0890                  (X_U2B.14)   -2.0895                      

(X_U2B.53)    8.5000                  (X_U2B.54)   -9.1780                      

(X_U2B.90)     .0921                  (X_U2B.91)   40.0000                      

(X_U2B.92)  -40.0000                  (X_U2B.99)    0.0000                      

(AMPLIFIED)   -9.3164                 

Resuming Simulation with the following settings
ITL4 = 354
ABSTOL = 0.001


**** Interrupt ****

ERROR(ORPSIM-15129): |ION - IOFF| too small for ISWITCH model X_U1B.sw2.

ERROR(ORPSIM-15129): |ION - IOFF| too small for ISWITCH model X_U1B.sw1.

ERROR(ORPSIM-15129): |ION - IOFF| too small for ISWITCH model X_U1B.sw3.

ERROR(ORPSIM-15129): |ION - IOFF| too small for ISWITCH model X_U1B.sw4.

ERROR(ORPSIM-15129): |ION - IOFF| too small for ISWITCH model X_U2A.sw2.

ERROR(ORPSIM-15129): |ION - IOFF| too small for ISWITCH model X_U2A.sw1.

ERROR(ORPSIM-15129): |ION - IOFF| too small for ISWITCH model X_U2A.sw3.

ERROR(ORPSIM-15129): |ION - IOFF| too small for ISWITCH model X_U2A.sw4.

ERROR(ORPSIM-15129): |ION - IOFF| too small for ISWITCH model X_U2B.sw2.

ERROR(ORPSIM-15129): |ION - IOFF| too small for ISWITCH model X_U2B.sw1.

ERROR(ORPSIM-15129): |ION - IOFF| too small for ISWITCH model X_U2B.sw3.

ERROR(ORPSIM-15129): |ION - IOFF| too small for ISWITCH model X_U2B.sw4.

WARNING(ORPSIM-15452): Pulse Period < (Rise Time + Fall Time + Pulse Width) for V_V1.

ERROR(ORPSIM-15129): |ION - IOFF| too small for ISWITCH model X_U1B.sw2.

ERROR(ORPSIM-15129): |ION - IOFF| too small for ISWITCH model X_U1B.sw1.

ERROR(ORPSIM-15129): |ION - IOFF| too small for ISWITCH model X_U1B.sw3.

ERROR(ORPSIM-15129): |ION - IOFF| too small for ISWITCH model X_U1B.sw4.

ERROR(ORPSIM-15129): |ION - IOFF| too small for ISWITCH model X_U2A.sw2.

ERROR(ORPSIM-15129): |ION - IOFF| too small for ISWITCH model X_U2A.sw1.

ERROR(ORPSIM-15129): |ION - IOFF| too small for ISWITCH model X_U2A.sw3.

ERROR(ORPSIM-15129): |ION - IOFF| too small for ISWITCH model X_U2A.sw4.

ERROR(ORPSIM-15129): |ION - IOFF| too small for ISWITCH model X_U2B.sw2.

ERROR(ORPSIM-15129): |ION - IOFF| too small for ISWITCH model X_U2B.sw1.

ERROR(ORPSIM-15129): |ION - IOFF| too small for ISWITCH model X_U2B.sw3.

ERROR(ORPSIM-15129): |ION - IOFF| too small for ISWITCH model X_U2B.sw4.

WARNING(ORPSIM-15452): Pulse Period < (Rise Time + Fall Time + Pulse Width) for V_V1.

WARNING(ORPSIM-16534): Using high values of ITL4 for Speed Level > 0 may increase total simulation job time.

ERROR(ORPSIM-16551): Floating point computation failed during Device/Model Load. Possible solutions: 1)Ensure that all device parameters are in valid range. 2)Try using .options LIMIT

INTERNAL ERROR -- Invalid Number in device X_U1B.w2, Divide

ABORTING SIMULATION
**** 03/03/24 14:23:17 ******* PSpice 17.4.0 (Nov 2018) ******* ID# 0 ********

 ** Profile: "SCHEMATIC2-hehehehe"  [ d:\orcad projects\lab10comm\lab10comm-PSpiceFiles\SCHEMATIC2\hehehehe.sim ] 


 ****     JOB STATISTICS SUMMARY

 ****     CURRENT STEP                     PARAM FREQTEST =  600   


******************************************************************************



Node counts:
  Top level (NUNODS)                =          11
  External (NCNODS)                 =          62
  Total (NUMNOD)                    =          77

Total device count (NUMEL)          =         119
  Capacitors (C)                    =           8
  Diodes (D)                        =          15
  VCVS (E)                          =           3
  CCCS (F)                          =           9
  VCCS (G)                          =           6
  CCVS (H)                          =           3
  Current Sources (I)               =           3
  BJTs (Q)                          =           6
  Resistors (R)                     =          32
  Voltage Sources (V)               =          22
  ISwitches (W)                     =          12

Number of subcircuits (X)           =           3

Matrix statistics:
  Matrix size (NSTOP)               =         105
  Initial no. elements (NTTAR)      =         383
  No. elements w/ fillin (NTTBR)    =         589
  No. fillins (IFILL)               =         206
  No. overflows (NTTOV)             =         251
  No. LU operations (IOPS)          =         892
  Percent sparsity (PERSPA)         =      94.658

Analysis statistics:
  No. total time points (NUMTTP)    =        2083
  No. rejected time points (NUMRTP) =         311
  No. iterations (NUMNIT)           =       16373

Size of Probe file                  =      750086
Load Threads                        =          11

Runtime statistics:                       Seconds      Iterations
  Matrix load                       =         .34
  Matrix solution                   =         .02               2
  Readin                            =         .05
  General setup                     =        0.00
  CMI setup                     =        0.00
  Setup                             =        0.00
  DC sweep                          =        0.00               0
  Bias point                        =        0.00              44
  AC and noise                      =        0.00               0
  Total transient analysis          =        6.22
  Transient analysis w/o bias point =        6.22           16373
  Output                            =        0.00
  Overhead                          =         .03
  License check-out time            =      495.13
  Total job time (using Solver 1)   =        6.28
