
**** 08/10/22 19:26:16 ******* PSpice 17.4.0 (Nov 2018) ******* ID# 0 ********

 ** Profile: "SCHEMATIC1-q4b"  [ D:\Orcad Projects\hw5_dig_elec\hw5_digi_elec-PSpiceFiles\SCHEMATIC1\q4b.sim ] 


 ****     CIRCUIT DESCRIPTION


******************************************************************************




** Creating circuit file "q4b.cir" 
** WARNING: THIS AUTOMATICALLY GENERATED FILE MAY BE OVERWRITTEN BY SUBSEQUENT SIMULATIONS

*Libraries: 
* Profile Libraries :
* Local Libraries :
.LIB "../../../hw5_digi_elec-pspicefiles/hw5_digi_elec.lib" 
* From [PSPICE NETLIST] section of C:\Users\sixsi\AppData\Roaming\SPB_Data\cdssetup\OrCAD_PSpice\17.4.0\PSpice.ini file:
.lib "nom.lib" 

*Analysis directives: 
.TRAN  0 440n 0 0.1n 
.OPTIONS ADVCONV
.PROBE64 V(alias(*)) I(alias(*)) W(alias(*)) D(alias(*)) NOISE(alias(*)) 
.INC "..\SCHEMATIC1.net" 



**** INCLUDING SCHEMATIC1.net ****
* source HW5_DIGI_ELEC
C_C1         0 VO  1p  TC=0,0 
M_M1         VIN VDD VO 0 nmos_q4a_2           
V_Vin         VIN 0 5Vdc
V_VDD         VDD 0 5Vdc
M_M2         VIN VDD VO 0 nmos_q4a_2           
C_C2         0 VO  1p  TC=0,0 
V_V1         VIN 0  
+PULSE 0 5 0 10p 10p 200n 220n

**** RESUMING q4b.cir ****
.END

ERROR(ORPSIM-15143): Voltage source and/or inductor loop involving V_V1. You may break the loop by adding a series resistance
