
**** 03/31/23 21:57:41 ******* PSpice 17.4.0 (Nov 2018) ******* ID# 0 ********

 ** Profile: "SCHEMATIC3-s321"  [ d:\orcad projects\lab_dig_elec_5\lab_dig_elec_5-PSpiceFiles\SCHEMATIC3\s321.sim ] 


 ****     CIRCUIT DESCRIPTION


******************************************************************************




** Creating circuit file "s321.cir" 
** WARNING: THIS AUTOMATICALLY GENERATED FILE MAY BE OVERWRITTEN BY SUBSEQUENT SIMULATIONS

*Libraries: 
* Profile Libraries :
* Local Libraries :
* From [PSPICE NETLIST] section of C:\Users\sixsi\AppData\Roaming\SPB_Data\cdssetup\OrCAD_PSpice\17.4.0\PSpice.ini file:
.lib "nom.lib" 

*Analysis directives: 
.TRAN  0 0.5m 0 10n SKIPBP 
.OPTIONS ADVCONV
.PROBE64 V(alias(*)) I(alias(*)) W(alias(*)) D(alias(*)) NOISE(alias(*)) 
.INC "..\SCHEMATIC3.net" 



**** INCLUDING SCHEMATIC3.net ****
* source LAB_DIG_ELEC_5
X_U3         0 VCLK OUT +5V MOD_SIG CAP CAP +5V 555C
R_RL         +5V OUT  10k TC=0,0 
C_C3         0 CAP  10n  TC=0,0 
V_V1         +5V 0 5V
R_R3         CAP +5V  10k TC=0,0 
V_V2         VCLK 0  
+PULSE 5 0 0 1n 1n 12.5u 25u
V_V3         MOD_SIG 0  AC 1
+SIN 1 1 3k 0 0 0

**** RESUMING s321.cir ****
.END

**** 03/31/23 21:57:41 ******* PSpice 17.4.0 (Nov 2018) ******* ID# 0 ********

 ** Profile: "SCHEMATIC3-s321"  [ d:\orcad projects\lab_dig_elec_5\lab_dig_elec_5-PSpiceFiles\SCHEMATIC3\s321.sim ] 


 ****     Diode MODEL PARAMETERS


******************************************************************************




               X_U3.DIODE      
          IS   10.000000E-15 
          RS     .01         


**** 03/31/23 21:57:41 ******* PSpice 17.4.0 (Nov 2018) ******* ID# 0 ********

 ** Profile: "SCHEMATIC3-s321"  [ d:\orcad projects\lab_dig_elec_5\lab_dig_elec_5-PSpiceFiles\SCHEMATIC3\s321.sim ] 


 ****     Junction FET MODEL PARAMETERS


******************************************************************************




               X_U3.JNEMOD     
               NJF             
         VTO   -2.5          
        BETA    5.120000E-06 


**** 03/31/23 21:57:41 ******* PSpice 17.4.0 (Nov 2018) ******* ID# 0 ********

 ** Profile: "SCHEMATIC3-s321"  [ d:\orcad projects\lab_dig_elec_5\lab_dig_elec_5-PSpiceFiles\SCHEMATIC3\s321.sim ] 


 ****     MOSFET MODEL PARAMETERS


******************************************************************************




               X_U3.PCHAN555   X_U3.NCHAN555   
               PMOS            NMOS            
       LEVEL    1               1            
           L  100.000000E-06  100.000000E-06 
           W  100.000000E-06  100.000000E-06 
         VTO    -.2              .2          
          KP   20.000000E-06   20.000000E-06 
       GAMMA    0               0            
         PHI     .6              .6          
      LAMBDA    0               0            
          IS   10.000000E-15   10.000000E-15 
          JS    0               0            
          PB     .8              .8          
        PBSW     .8              .8          
          CJ    0               0            
        CJSW    0               0            
        CGSO    1.000000E-12    1.000000E-12 
        CGDO    1.000000E-12    1.000000E-12 
        CGBO    1.000000E-12    1.000000E-12 
         TOX    0               0            
          XJ    0               0            
       UCRIT   10.000000E+03   10.000000E+03 
      DIOMOD    1               1            
         VFB    0               0            
        LETA    0               0            
        WETA    0               0            
          U0    0               0            
        TEMP    0               0            
         VDD    5               5            
       XPART    0               0            


               X_U3.PCHAN555_OUT 
               PMOS            
       LEVEL    1            
           L  100.000000E-06 
           W  100.000000E-06 
         VTO    -.2          
          KP   20.000000E-06 
       GAMMA    0            
         PHI     .6          
      LAMBDA    0            
          IS   10.000000E-15 
          JS    0            
          PB     .8          
        PBSW     .8          
         CBD  200.000000E-12 
          CJ    0            
        CJSW    0            
        CGSO    1.000000E-12 
        CGDO    1.000000E-12 
        CGBO    1.000000E-12 
         TOX    0            
          XJ    0            
       UCRIT   10.000000E+03 
      DIOMOD    1            
         VFB    0            
        LETA    0            
        WETA    0            
          U0    0            
        TEMP    0            
         VDD    5            
       XPART    0            



          JOB CONCLUDED

**** 03/31/23 21:57:41 ******* PSpice 17.4.0 (Nov 2018) ******* ID# 0 ********

 ** Profile: "SCHEMATIC3-s321"  [ d:\orcad projects\lab_dig_elec_5\lab_dig_elec_5-PSpiceFiles\SCHEMATIC3\s321.sim ] 


 ****     JOB STATISTICS SUMMARY


******************************************************************************



  License check-out time            =        6.56
  Total job time (using Solver 1)   =        2.88
