
**** 03/31/23 15:52:15 ******* PSpice 17.4.0 (Nov 2018) ******* ID# 0 ********

 ** Profile: "SCHEMATIC1-sim1"  [ d:\orcad projects\lab_dig_elec_5\lab_dig_elec_5-pspicefiles\schematic1\sim1.sim ] 


 ****     CIRCUIT DESCRIPTION


******************************************************************************




** Creating circuit file "sim1.cir" 
** WARNING: THIS AUTOMATICALLY GENERATED FILE MAY BE OVERWRITTEN BY SUBSEQUENT SIMULATIONS

*Libraries: 
* Profile Libraries :
* Local Libraries :
* From [PSPICE NETLIST] section of C:\Users\sixsi\AppData\Roaming\SPB_Data\cdssetup\OrCAD_PSpice\17.4.0\PSpice.ini file:
.lib "nom.lib" 

*Analysis directives: 
.TRAN  0 4m 0 SKIPBP 
.OPTIONS ADVCONV
.PROBE64 V(alias(*)) I(alias(*)) W(alias(*)) D(alias(*)) NOISE(alias(*)) 
.INC "..\SCHEMATIC1.net" 



**** INCLUDING SCHEMATIC1.net ****
* source LAB_DIG_ELEC_5
R_R1         VCC N00866  1.82k TC=0,0 
C_C1         N00462 0  10n  TC=0,0 
C_C2         0 N00866  1u  TC=0,0 
V_V1         VCC 0 5V
V_V2         TRIG 0  
+PULSE 5 0 0 1n 1n 25u 2.5m
X_U2         0 TRIG OUT1 VCC N00462 N00866 N00866 VCC TLC555/TI
R_R2         0 OUT1  10k TC=0,0 
R_R3         N02863 VCC  5.77k TC=0,0 
R_R4         N02815 N02863  722 TC=0,0 
C_C3         0 N02815  0.1u  TC=0,0 
C_C4         0 N02840  0.01n  TC=0,0 
R_RL         0 OUT2  1k TC=0,0 
X_U3         0 N02815 OUT2 VCC N02840 N02815 N02863 VCC TLC555/TI

**** RESUMING sim1.cir ****
.END

**** 03/31/23 15:52:15 ******* PSpice 17.4.0 (Nov 2018) ******* ID# 0 ********

 ** Profile: "SCHEMATIC1-sim1"  [ d:\orcad projects\lab_dig_elec_5\lab_dig_elec_5-pspicefiles\schematic1\sim1.sim ] 


 ****     Diode MODEL PARAMETERS


******************************************************************************




               X_U2.DMOD       X_U2.DMOD1      X_U3.DMOD       X_U3.DMOD1      
          IS   10.000000E-15    1.000000E-09   10.000000E-15    1.000000E-09 
          RS    1.000000E-06    1.000000E-06    1.000000E-06    1.000000E-06 


**** 03/31/23 15:52:15 ******* PSpice 17.4.0 (Nov 2018) ******* ID# 0 ********

 ** Profile: "SCHEMATIC1-sim1"  [ d:\orcad projects\lab_dig_elec_5\lab_dig_elec_5-pspicefiles\schematic1\sim1.sim ] 


 ****     MOSFET MODEL PARAMETERS


******************************************************************************




               X_U2.MOSMOD     X_U3.MOSMOD     
               NMOS            NMOS            
       LEVEL    1               1            
           L  100.000000E-06  100.000000E-06 
           W  100.000000E-06  100.000000E-06 
         VTO    1               1            
          KP    1               1            
       GAMMA    0               0            
         PHI     .6              .6          
      LAMBDA    0               0            
          RD    5               5            
          IS   10.000000E-15   10.000000E-15 
          JS    0               0            
          PB     .8              .8          
        PBSW     .8              .8          
          CJ    0               0            
        CJSW    0               0            
        CGSO    0               0            
        CGDO    0               0            
        CGBO    0               0            
         TOX    0               0            
          XJ    0               0            
       UCRIT   10.000000E+03   10.000000E+03 
      DIOMOD    1               1            
         VFB    0               0            
        LETA    0               0            
        WETA    0               0            
          U0    0               0            
        TEMP    0               0            
         VDD    5               5            
       XPART    0               0            

Reducing minimum delta to make the circuit converge.
Reducing minimum delta to make the circuit converge.
Reducing minimum delta to make the circuit converge.
Reducing minimum delta to make the circuit converge.

ERROR(ORPSIM-15138): Convergence problem in Transient Analysis at Time =  74.51E-21.
         Time step =  74.51E-21, minimum allowable step size =  1.000E-18

  These voltages failed to converge:

    V(VCC)                    =     5.000V  \         0V
    V(TRIG)                   =     5.000V  \         0V
    V(OUT1)                   =   -2.574KV  \         0V
    V(N02863)                 =   556.07mV  \         0V
    V(OUT2)                   =   -280.31V  \         0V
    V(X_U2.15)                =     2.500V  \         0V
    V(X_U2.26)                =     4.347V  \         0V
    V(X_U2.27)                =     4.200V  \         0V
    V(X_U2.28)                =   850.00mV  \         0V
    V(X_U2.30)                =     1.200V  \         0V
    V(X_U2.13)                =    5.000KV  \         0V
    V(X_U2.14)                =    5.000KV  \         0V
    V(X_U2.12)                =     5.001V  \         0V
    V(X_U2.20)                =    3.800KV  \         0V
    V(X_U2.19)                =    3.800KV  \         0V
    V(X_U2.16)                =   -2.501KV  \         0V
    V(X_U2.17)                =   -2.501KV  \         0V
    V(X_U2.18)                =     5.000V  \         0V
    V(X_U2.21)                =     5.001V  \         0V
    V(X_U2.22)                =   -2.501KV  \         0V
    V(X_U2.23)                =   -2.501KV  \         0V
    V(X_U2.24)                =   -2.500KV  \         0V
    V(X_U2.25)                =   -2.500KV  \         0V
    V(X_U3.15)                =     2.500V  \         0V
    V(X_U3.26)                =     4.347V  \         0V
    V(X_U3.27)                =     4.200V  \         0V
    V(X_U3.28)                =   850.00mV  \         0V
    V(X_U3.30)                =     1.200V  \         0V
    V(X_U3.12)                =     5.000V  \         0V
    V(X_U3.20)                =    3.800KV  \         0V
    V(X_U3.19)                =    3.800KV  \         0V
    V(X_U3.16)                =   -2.500KV  \         0V
    V(X_U3.17)                =   -2.500KV  \         0V
    V(X_U3.18)                =     5.000V  \         0V
    V(X_U3.21)                =     5.000V  \         0V
    V(X_U3.22)                =   -2.500KV  \         0V
    V(X_U3.23)                =   -2.500KV  \         0V
    V(X_U3.24)                =   -2.500KV  \         0V
    V(X_U3.25)                =   -2.500KV  \         0V

  These supply currents failed to converge:

    I(X_U2.EREF)              =   -25.00uA  \         0A
    I(X_U2.E1)                =    6.935pA  \         0A
    I(X_U2.E2)                =   -20.79nA  \         0A
    I(X_U2.E3)                =    6.943nA  \         0A
    I(X_U2.E4)                =    6.942nA  \         0A
    I(X_U2.E5)                =    96.65uA  \         0A
    I(X_U2.E7)                =   -10.53nA  \         0A
    I(X_U3.EREF)              =   -25.00uA  \         0A
    I(X_U3.E1)                =    6.933pA  \         0A
    I(X_U3.E2)                =    13.87pA  \         0A
    I(X_U3.E3)                =    6.940nA  \         0A
    I(X_U3.E4)                =    6.939nA  \         0A
    I(X_U3.E5)                =    96.65uA  \         0A
    I(X_U3.E7)                =   -10.53nA  \         0A
    I(V_V1)                   =   -19.98mA  \         0A
    I(V_V2)                   =   -10.00pA  \         0A
    I(X_U2.VD1)               =    3.575nA  \         0A
    I(X_U2.VD2)               =   -3.609nA  \         0A
    I(X_U2.VREF)              =   -12.00uA  \         0A
    I(X_U3.VD1)               =   394.52pA  \         0A
    I(X_U3.VD2)               =  -465.66pA  \         0A
    I(X_U3.VREF)              =   -12.00uA  \         0A

  These devices failed to converge:
    X_U2.D2   X_U2.D3   X_U2.D4   X_U2.D5   X_U2.D6   X_U2.D7   X_U2.D8   
    X_U2.D9   X_U2.D10  X_U2.D11  X_U2.D12  X_U2.D13  X_U2.D14  X_U2.D15  
    X_U2.D16  X_U3.D2   X_U3.D3   X_U3.D5   X_U3.D6   X_U3.D7   X_U3.D8   
    X_U3.D9   X_U3.D10  X_U3.D11  X_U3.D12  X_U3.D13  X_U3.D14  X_U3.D15  
    X_U3.D16  



  Last node voltages tried were:

 NODE   VOLTAGE     NODE   VOLTAGE     NODE   VOLTAGE     NODE   VOLTAGE


(  VCC)    5.0000  ( OUT1)-2573.7000  ( OUT2) -280.3100  ( TRIG)    5.0000      

(N00462) 3.974E-15 (N00866) 1.637E-15 (N02815) 4.591E-15 (N02840) 3.974E-12     

(N02863)     .5561 (X_U2.9) 1.987E-15 (X_U3.9) 1.987E-12 (X_U2.10)-2.336E-12    

(X_U2.11) 6.932E-09                   (X_U2.12)    5.0011                       

(X_U2.13) 5000.0000                   (X_U2.14) 5000.0000                       

(X_U2.15)    2.5000                   (X_U2.16)-2501.1000                       

(X_U2.17)-2501.1000                   (X_U2.18)    4.9996                       

(X_U2.19) 3800.0000                   (X_U2.20) 3800.0000                       

(X_U2.21)    5.0005                   (X_U2.22)-2500.5000                       

(X_U2.23)-2500.5000                   (X_U2.24)-2499.6000                       

(X_U2.25)-2499.5000                   (X_U2.26)    4.3473                       

(X_U2.27)    4.2000                   (X_U2.28)     .8500                       

(X_U2.29) 3.702E-12                   (X_U2.30)    1.2000                       

(X_U3.10)-3.969E-09                   (X_U3.11) 2.964E-09                       

(X_U3.12)    5.0000                   (X_U3.13)-1.982E-09                       

(X_U3.14) 11.88E-09                   (X_U3.15)    2.5000                       

(X_U3.16)-2500.0000                   (X_U3.17)-2500.0000                       

(X_U3.18)    4.9996                   (X_U3.19) 3800.0000                       

(X_U3.20) 3800.0000                   (X_U3.21)    4.9995                       

(X_U3.22)-2499.5000                   (X_U3.23)-2499.5000                       

(X_U3.24)-2499.6000                   (X_U3.25)-2499.5000                       

(X_U3.26)    4.3474                   (X_U3.27)    4.2000                       

(X_U3.28)     .8500                   (X_U3.29) 3.702E-12                       

(X_U3.30)    1.2000                   


**** Interrupt ****

The following unused Convergence options can be added to simulation:
CSHUNT=1e-12
DIODERS=1e-4
DIODECJO=2e-12
BJTCJ=1e-11
JFETCJ=1e-12
MOSCJ=1e-12
AutoConverge

          JOB ABORTED

**** 03/31/23 15:52:15 ******* PSpice 17.4.0 (Nov 2018) ******* ID# 0 ********

 ** Profile: "SCHEMATIC1-sim1"  [ d:\orcad projects\lab_dig_elec_5\lab_dig_elec_5-pspicefiles\schematic1\sim1.sim ] 


 ****     JOB STATISTICS SUMMARY


******************************************************************************



  License check-out time            =      111.06
  Total job time (using Solver 1)   =        2.72
