
**** 01/15/24 14:05:18 ******* PSpice 17.4.0 (Nov 2018) ******* ID# 0 ********

 ** Profile: "SCHEMATIC1-test1"  [ C:\Cadence\My projects\comm_lab\commLab_exp4\commLab_exp4-PSpiceFiles\SCHEMATIC1\test1.sim ] 


 ****     CIRCUIT DESCRIPTION


******************************************************************************




** Creating circuit file "test1.cir" 
** WARNING: THIS AUTOMATICALLY GENERATED FILE MAY BE OVERWRITTEN BY SUBSEQUENT SIMULATIONS

*Libraries: 
* Profile Libraries :
* Local Libraries :
* From [PSPICE NETLIST] section of C:\Users\sixsi\AppData\Roaming\SPB_Data\cdssetup\OrCAD_PSpice\17.4.0\PSpice.ini file:
.lib "nom.lib" 

*Analysis directives: 
.TRAN  0 1m 0 10n 
.OPTIONS ADVCONV
.PROBE64 V(alias(*)) I(alias(*)) W(alias(*)) D(alias(*)) NOISE(alias(*)) 
.INC "..\SCHEMATIC1.net" 



**** INCLUDING SCHEMATIC1.net ****
* source COMMLAB_EXP4
D_D1         N00131 VOUT D1N4001 
R_R1         0 VOUT  1k TC=0,0 
R_R2         N00131 N00262  1k TC=0,0 
R_R3         N00131 N00258  1k TC=0,0 
R_R4         N00131 0  100k TC=0,0 
V_V1         N00262 0  AC 1
+SIN 0 2.5 500k 0 0 0
V_V2         N00258 0  AC 1
+SIN 0 0.25 20k 0 0 0

**** RESUMING test1.cir ****
.END

**** 01/15/24 14:05:18 ******* PSpice 17.4.0 (Nov 2018) ******* ID# 0 ********

 ** Profile: "SCHEMATIC1-test1"  [ C:\Cadence\My projects\comm_lab\commLab_exp4\commLab_exp4-PSpiceFiles\SCHEMATIC1\test1.sim ] 


 ****     Diode MODEL PARAMETERS


******************************************************************************




               D1N4001         
          IS   14.110000E-09 
           N    1.984        
         IKF   94.81         
          BV   75            
         IBV   10.000000E-06 
          RS     .03389      
          TT    5.700000E-06 
         CJO   25.890000E-12 
          VJ     .3245       
           M     .44         


**** 01/15/24 14:05:18 ******* PSpice 17.4.0 (Nov 2018) ******* ID# 0 ********

 ** Profile: "SCHEMATIC1-test1"  [ C:\Cadence\My projects\comm_lab\commLab_exp4\commLab_exp4-PSpiceFiles\SCHEMATIC1\test1.sim ] 


 ****     INITIAL TRANSIENT SOLUTION       TEMPERATURE =   27.000 DEG C


******************************************************************************



 NODE   VOLTAGE     NODE   VOLTAGE     NODE   VOLTAGE     NODE   VOLTAGE


( VOUT)-629.8E-24  (N00131) 313.3E-24 (N00258)    0.0000 (N00262)    0.0000 




    VOLTAGE SOURCE CURRENTS
    NAME         CURRENT

    V_V1         3.133E-25
    V_V2         3.133E-25

    TOTAL POWER DISSIPATION   0.00E+00  WATTS



          JOB CONCLUDED

**** 01/15/24 14:05:18 ******* PSpice 17.4.0 (Nov 2018) ******* ID# 0 ********

 ** Profile: "SCHEMATIC1-test1"  [ C:\Cadence\My projects\comm_lab\commLab_exp4\commLab_exp4-PSpiceFiles\SCHEMATIC1\test1.sim ] 


 ****     JOB STATISTICS SUMMARY


******************************************************************************



  License check-out time            =        1.36
  Total job time (using Solver 1)   =        1.02
