
**** 01/01/24 00:29:16 ******* PSpice 17.4.0 (Nov 2018) ******* ID# 0 ********

 ** Profile: "SCHEMATIC1-mysim"  [ c:\cadence\my projects\comm_lab\comm_lab_prep1-pspicefiles\schematic1\mysim.sim ] 


 ****     CIRCUIT DESCRIPTION


******************************************************************************




** Creating circuit file "mysim.cir" 
** WARNING: THIS AUTOMATICALLY GENERATED FILE MAY BE OVERWRITTEN BY SUBSEQUENT SIMULATIONS

*Libraries: 
* Profile Libraries :
* Local Libraries :
* From [PSPICE NETLIST] section of C:\Users\sixsi\AppData\Roaming\SPB_Data\cdssetup\OrCAD_PSpice\17.4.0\PSpice.ini file:
.lib "nom.lib" 

*Analysis directives: 
.TRAN  0 1m 0 10n 
.OPTIONS ADVCONV
.PROBE64 V(alias(*)) I(alias(*)) W(alias(*)) D(alias(*)) NOISE(alias(*)) 
.INC "..\SCHEMATIC1.net" 



**** INCLUDING SCHEMATIC1.net ****
* source COMM_LAB_PREP1
R_R1         VIN N00155  1k TC=0,0 
R_R2         GND N00155  100k TC=0,0 
V_V1         VIN GND  
+PULSE 50m -50m 0 1n 1n 1.11u 2.22u
E_BPASS1         VOUT 0 CHEBYSHEV {V(N00155)} BP (445k 445k 455k 455k) 1dB 50dB

ERROR(ORPSIM-16550): Floating point computation failed during matrix solution. Possible solutions: 1)Ensure that all device parameters are in valid range. 2)Try using .options LIMIT

INTERNAL ERROR -- Divide by Zero, Divide

ABORTING SIMULATION
**** 01/01/24 00:29:16 ******* PSpice 17.4.0 (Nov 2018) ******* ID# 0 ********

 ** Profile: "SCHEMATIC1-mysim"  [ c:\cadence\my projects\comm_lab\comm_lab_prep1-pspicefiles\schematic1\mysim.sim ] 


 ****     JOB STATISTICS SUMMARY


******************************************************************************



Node counts:
  Top level (NUNODS)                =           1
  External (NCNODS)                 =           5
  Total (NUMNOD)                    =           0

Total device count (NUMEL)          =           3
  Resistors (R)                     =           2
  Voltage Sources (V)               =           1

Number of subcircuits (X)           =           0

Analysis statistics:
  No. total time points (NUMTTP)    =           0
  No. rejected time points (NUMRTP) =           0
  No. iterations (NUMNIT)           =           0

Load Threads                        =           1

Runtime statistics:                       Seconds      Iterations
  Readin                            =        0.00
  General setup                     =        0.00
  CMI setup                     =        0.00
  Setup                             =        0.00
  DC sweep                          =        0.00               0
  Bias point                        =        0.00               0
  AC and noise                      =        0.00               0
  Total transient analysis          =        0.00
  Output                            =        0.00
  Overhead                          =         .03
  License check-out time            =        9.52
  Total job time                    =        0.00

**** 01/01/24 00:29:16 ******* PSpice 17.4.0 (Nov 2018) ******* ID# 0 ********

 .END


 ****     CIRCUIT DESCRIPTION


******************************************************************************



