
**** 03/31/23 16:08:29 ******* PSpice 17.4.0 (Nov 2018) ******* ID# 0 ********

 ** Profile: "SCHEMATIC1-sim2"  [ d:\orcad projects\lab_dig_elec_5\lab_dig_elec_5-PSpiceFiles\SCHEMATIC1\sim2.sim ] 


 ****     CIRCUIT DESCRIPTION


******************************************************************************




** Creating circuit file "sim2.cir" 
** WARNING: THIS AUTOMATICALLY GENERATED FILE MAY BE OVERWRITTEN BY SUBSEQUENT SIMULATIONS

*Libraries: 
* Profile Libraries :
* Local Libraries :
* From [PSPICE NETLIST] section of C:\Users\sixsi\AppData\Roaming\SPB_Data\cdssetup\OrCAD_PSpice\17.4.0\PSpice.ini file:
.lib "nom.lib" 

*Analysis directives: 
.TRAN  0 10m 0 1u 
.OPTIONS ADVCONV
.PROBE64 V(alias(*)) I(alias(*)) W(alias(*)) D(alias(*)) NOISE(alias(*)) 
.INC "..\SCHEMATIC1.net" 



**** INCLUDING SCHEMATIC1.net ****
* source LAB_DIG_ELEC_5
R_R1         VCC N00866  1.82k TC=0,0 
C_C1         N00462 0  10n  TC=0,0 
C_C2         0 N00866  1u  TC=0,0 
V_V2         TRIG 0  
+PULSE 5 0 0 1n 1n 25u 2.5m
X_U2         0 TRIG OUT1 VCC N00462 N00866 N00866 VCC TLC555/TI
R_R2         0 OUT1  10k TC=0,0 
V_V1         +5V 0 5V
C_C4         0 N05275  0.01n  TC=0,0 
R_RL         0 OUT2  10k TC=0,0 
R_R4         N05263 N06072  5.77k TC=0,0 
C_C3         0 N05263  0.1u  TC=0,0 
R_R3         N06072 +5V  722 TC=0,0 
X_U3         0 N05263 OUT2 +5V N05275 N05263 N06072 +5V 555C

**** RESUMING sim2.cir ****
.END

**** 03/31/23 16:08:29 ******* PSpice 17.4.0 (Nov 2018) ******* ID# 0 ********

 ** Profile: "SCHEMATIC1-sim2"  [ d:\orcad projects\lab_dig_elec_5\lab_dig_elec_5-PSpiceFiles\SCHEMATIC1\sim2.sim ] 


 ****     Diode MODEL PARAMETERS


******************************************************************************




               X_U2.DMOD       X_U2.DMOD1      X_U3.DIODE      
          IS   10.000000E-15    1.000000E-09   10.000000E-15 
          RS    1.000000E-06    1.000000E-06     .01         


**** 03/31/23 16:08:29 ******* PSpice 17.4.0 (Nov 2018) ******* ID# 0 ********

 ** Profile: "SCHEMATIC1-sim2"  [ d:\orcad projects\lab_dig_elec_5\lab_dig_elec_5-PSpiceFiles\SCHEMATIC1\sim2.sim ] 


 ****     Junction FET MODEL PARAMETERS


******************************************************************************




               X_U3.JNEMOD     
               NJF             
         VTO   -2.5          
        BETA    5.120000E-06 


**** 03/31/23 16:08:29 ******* PSpice 17.4.0 (Nov 2018) ******* ID# 0 ********

 ** Profile: "SCHEMATIC1-sim2"  [ d:\orcad projects\lab_dig_elec_5\lab_dig_elec_5-PSpiceFiles\SCHEMATIC1\sim2.sim ] 


 ****     MOSFET MODEL PARAMETERS


******************************************************************************




               X_U2.MOSMOD     X_U3.PCHAN555   X_U3.NCHAN555   
               NMOS            PMOS            NMOS            
       LEVEL    1               1               1            
           L  100.000000E-06  100.000000E-06  100.000000E-06 
           W  100.000000E-06  100.000000E-06  100.000000E-06 
         VTO    1               -.2              .2          
          KP    1              20.000000E-06   20.000000E-06 
       GAMMA    0               0               0            
         PHI     .6              .6              .6          
      LAMBDA    0               0               0            
          RD    5                                            
          IS   10.000000E-15   10.000000E-15   10.000000E-15 
          JS    0               0               0            
          PB     .8              .8              .8          
        PBSW     .8              .8              .8          
          CJ    0               0               0            
        CJSW    0               0               0            
        CGSO    0               1.000000E-12    1.000000E-12 
        CGDO    0               1.000000E-12    1.000000E-12 
        CGBO    0               1.000000E-12    1.000000E-12 
         TOX    0               0               0            
          XJ    0               0               0            
       UCRIT   10.000000E+03   10.000000E+03   10.000000E+03 
      DIOMOD    1               1               1            
         VFB    0               0               0            
        LETA    0               0               0            
        WETA    0               0               0            
          U0    0               0               0            
        TEMP    0               0               0            
         VDD    5               5               5            
       XPART    0               0               0            


               X_U3.PCHAN555_OUT 
               PMOS            
       LEVEL    1            
           L  100.000000E-06 
           W  100.000000E-06 
         VTO    -.2          
          KP   20.000000E-06 
       GAMMA    0            
         PHI     .6          
      LAMBDA    0            
          IS   10.000000E-15 
          JS    0            
          PB     .8          
        PBSW     .8          
         CBD  200.000000E-12 
          CJ    0            
        CJSW    0            
        CGSO    1.000000E-12 
        CGDO    1.000000E-12 
        CGBO    1.000000E-12 
         TOX    0            
          XJ    0            
       UCRIT   10.000000E+03 
      DIOMOD    1            
         VFB    0            
        LETA    0            
        WETA    0            
          U0    0            
        TEMP    0            
         VDD    5            
       XPART    0            


Starting pseudo-transient algorithm.

ERROR -- Convergence problem in transient bias point calculation


  Last node voltages tried were:

 NODE   VOLTAGE     NODE   VOLTAGE     NODE   VOLTAGE     NODE   VOLTAGE


(  +5V)    5.0000  (  VCC)     .3900  ( OUT1)     .1105  ( OUT2)-1.178E-06      

( TRIG)    5.0000  (N00462)     .2600 (N00866)     .3900 (N05263)    1.6667     

(N05275)    3.3333 (N06072)     .1478 (X_U2.9)     .1300 (X_U3.1)    5.0000     

(X_U3.2)    1.6667 (X_U3.3)    -.2035 (X_U3.4)    4.2000 (X_U3.5)    -.4212     

(X_U3.6)-16.67E+03 (X_U3.7)    4.2000 (X_U3.8)    -.6683 (X_U3.9)    4.8180     

(X_U2.10)  130.0100                   (X_U2.11)  130.0100                       

(X_U2.12)     .3908                   (X_U2.13) 4870.0000                       

(X_U2.14) 4870.0000                   (X_U2.15)     .1950                       

(X_U2.16) -195.7600                   (X_U2.17)    -.7915                       

(X_U2.18)    -.3218                   (X_U2.19)    -.8283                       

(X_U2.20) -809.9800                   (X_U2.21)     .3908                       

(X_U2.22) -195.8200                   (X_U2.23)    -.7915                       

(X_U2.24)  516.7600                   (X_U2.25)  516.7600                       

(X_U2.26)     .3901                   (X_U2.27)    -.4100                       

(X_U2.28)     .8500                   (X_U2.29)     .3901                       

(X_U2.30)    1.2000                   (X_U3.10)-877.9E-09                       

(X_U3.11)    4.9216                   (X_U3.12) 100.7E-12                       

(X_U3.13)    5.0000                   (X_U3.14)    5.0000                       

(X_U3.15)    5.0000                   (X_U3.16)    4.5972                       

(X_U3.17)    1.0642                   (X_U3.18)-633.9E-12                       

(X_U3.19)-490.7E-12                   (X_U3.20)    4.9998                       

(X_U3.21)     .1317                   (X_U3.22)    3.4886                       

(X_U3.23)     .3788                   (X_U3.24)    2.4725                       

(X_U3.25) 798.3E-09                   (X_U3.VDD)    5.0000                  


  These voltages failed to converge:

    V(VCC)                    =  -256.19mV  \   390.02mV
    V(N00866)                 =  -256.19mV  \   390.02mV
    V(N00462)                 =  -170.79mV  \   260.02mV
    V(OUT1)                   =     19.70V  \   110.48mV
    V(OUT2)                   =    3.711nV  \   -1.178uV
    V(N05263)                 =     1.085V  \     1.667V
    V(N06072)                 =     1.085V  \   147.77mV
    V(X_U2.15)                =  -128.10mV  \   195.01mV
    V(X_U2.26)                =  -121.58mV  \   390.10mV
    V(X_U2.27)                =    -1.056V  \  -409.98mV
    V(X_U2.29)                =  -121.58mV  \   390.10mV
    V(X_U2.9)                 =   -85.40mV  \   130.01mV
    V(X_U2.10)                =    -85.40V  \    130.01V
    V(X_U2.11)                =    -85.40V  \    130.01V
    V(X_U2.13)                =    5.085KV  \    4.870KV
    V(X_U2.14)                =    5.085KV  \    4.870KV
    V(X_U2.12)                =  -255.44mV  \   390.77mV
    V(X_U2.20)                =   -1.456KV  \   -809.98V
    V(X_U2.19)                =   -1.395KV  \  -828.29mV
    V(X_U2.16)                =    127.35V  \   -195.76V
    V(X_U2.17)                =     97.65V  \  -791.48mV
    V(X_U2.18)                =   -897.54V  \  -321.75mV
    V(X_U2.21)                =  -120.82mV  \   390.83mV
    V(X_U2.22)                =    -7.279V  \   -195.82V
    V(X_U2.23)                =    -33.09V  \  -791.49mV
    V(X_U2.24)                =   897.41KV  \    516.76V
    V(X_U2.25)                =   897.41KV  \    516.76V
    V(X_U3.3)                 =    5.821KV  \  -203.48mV
    V(X_U3.23)                =    122.40V  \   378.79mV
    V(X_U3.5)                 =    121.60V  \  -421.21mV
    V(X_U3.6)                 =   -22.49KV  \   -16.67KV
    V(X_U3.21)                =   122.63mV  \   131.67mV
    V(X_U3.8)                 =  -677.37mV  \  -668.33mV
    V(X_U3.9)                 =   -21.83KV  \     4.818V
    V(X_U3.17)                =    10.92KV  \     1.064V
    V(X_U3.11)                =   -10.91KV  \     4.922V
    V(X_U3.16)                =   -10.91KV  \     4.597V
    V(X_U3.24)                =   -21.83KV  \     2.473V
    V(X_U3.22)                =     2.500V  \     3.489V

  These supply currents failed to converge:

    I(X_U2.EREF)              =    1.281uA  \   -1.950uA
    I(X_U2.E1)                =   170.52pA  \  -259.64pA
    I(X_U2.E2)                =   -15.26nA  \   -14.61nA
    I(X_U2.E3)                =   -29.70mA  \   194.97mA
    I(X_U2.E4)                =   -25.81mA  \   195.03mA
    I(X_U2.E5)                =   -2.693uA  \   -2.550nA
    I(X_U2.E7)                =    61.49mA  \   809.15mA
    I(X_U3.E_EMIR)            =   -109.37A  \   -22.42mA
    I(X_U3.E_EVAL)            =         0A  \    20.28pA
    I(X_U3.E_U6_E1CMP)        =  -569.83uA  \    58.23nA
    I(X_U3.E_U6_E1)           =   118.19pA  \   -3.831pA
    I(X_U3.E_U7_E1CMP)        =    2.249mA  \    1.667mA
    I(V_V1)                   =   -5.492mA  \   -6.790mA
    I(X_U2.VD1)               =   -4.296mA  \   -5.485uA
    I(X_U2.VD2)               =   232.83pA  \   -26.16mA
    I(X_U3.V_U6_V2)           =   557.59uA  \  -118.22nA
    I(X_U3.V_U7_V2)           =   -2.249mA  \   -1.667mA

  These devices failed to converge:
    X_U2.D1   X_U2.D2   X_U2.D5   X_U2.D6   X_U2.D7   X_U2.D8   X_U2.D11  
    X_U2.D12  X_U2.D15  X_U2.D16  X_U3.D_U6_D2CLMP X_U3.D_U6_D1CLMP 
    X_U3.D_U7_D1CLMP X_U3.M_M1 X_U3.M_U2_U1_M4 X_U3.M_U2_U1_M3 X_U3.M_U2_U1_M6 
    X_U3.M_U2_U1_M1 X_U3.M_U2_U1_M2 X_U3.M_U2_U1_M5 X_U3.M_U2_U1_M7 
    X_U3.M_U2_U2_M3 X_U3.M_U2_U2_M8 X_U3.M_U2_U2_M1 X_U3.M_U2_U2_M5 
    X_U3.M_U2_U3_M1 X_U3.M_U2_U3_M2 X_U3.M_U2_U3_M3 X_U3.M_U2_U3_M4 
    X_U3.M_U2_U4_M3 X_U3.M_U2_U4_M4 X_U3.M_U2_U5_M1 X_U3.M_U2_U5_M2 
    X_U3.M_U2_U5_M3 X_U3.M_U2_U6_M2 X_U3.M_U2_U6_M3 X_U3.M_U2_U7_M2 

**** Interrupt ****
