
**** 02/14/23 20:44:22 ******* PSpice 17.4.0 (Nov 2018) ******* ID# 0 ********

 ** Profile: "SCHEMATIC1-HEHE"  [ D:\Orcad Projects\Diode_cap_calc\Diode_cap_calc-PSpiceFiles\SCHEMATIC1\HEHE.sim ] 


 ****     CIRCUIT DESCRIPTION


******************************************************************************




** Creating circuit file "HEHE.cir" 
** WARNING: THIS AUTOMATICALLY GENERATED FILE MAY BE OVERWRITTEN BY SUBSEQUENT SIMULATIONS

*Libraries: 
* Profile Libraries :
* Local Libraries :
.LIB "../../../diode_cap_calc-pspicefiles/diode_cap_calc.lib" 
* From [PSPICE NETLIST] section of C:\Users\sixsi\AppData\Roaming\SPB_Data\cdssetup\OrCAD_PSpice\17.4.0\PSpice.ini file:
.lib "nom.lib" 

*Analysis directives: 
.TRAN  0 0.5 0 1m 
.OPTIONS ADVCONV
.PROBE64 V(alias(*)) I(alias(*)) W(alias(*)) D(alias(*)) NOISE(alias(*)) 
.INC "..\SCHEMATIC1.net" 



**** INCLUDING SCHEMATIC1.net ****
* source DIODE_CAP_CALC
C_C1         N00141 N00148  1u  TC=0,0 
V_V1         N00141 0  AC 170
+SIN 0 170 60 0 0 0
X_D2         0 N00148 LED PARAMS: IS=1.7603e-27 RS=2  BV=200 IBV=10e-6         

**** RESUMING HEHE.cir ****
.END

**** 02/14/23 20:44:22 ******* PSpice 17.4.0 (Nov 2018) ******* ID# 0 ********

 ** Profile: "SCHEMATIC1-HEHE"  [ D:\Orcad Projects\Diode_cap_calc\Diode_cap_calc-PSpiceFiles\SCHEMATIC1\HEHE.sim ] 


 ****     Diode MODEL PARAMETERS


******************************************************************************




               X_D2.model201   
          IS    1.760300E-27 
           N    2            
          BV  200            
         IBV   10.000000E-06 
          RS    2            


**** 02/14/23 20:44:22 ******* PSpice 17.4.0 (Nov 2018) ******* ID# 0 ********

 ** Profile: "SCHEMATIC1-HEHE"  [ D:\Orcad Projects\Diode_cap_calc\Diode_cap_calc-PSpiceFiles\SCHEMATIC1\HEHE.sim ] 


 ****     INITIAL TRANSIENT SOLUTION       TEMPERATURE =   27.000 DEG C


******************************************************************************



 NODE   VOLTAGE     NODE   VOLTAGE     NODE   VOLTAGE     NODE   VOLTAGE


(N00141)    0.0000 (N00148)-183.7E-30 




    VOLTAGE SOURCE CURRENTS
    NAME         CURRENT

    V_V1         0.000E+00

    TOTAL POWER DISSIPATION   0.00E+00  WATTS



          JOB CONCLUDED

**** 02/14/23 20:44:22 ******* PSpice 17.4.0 (Nov 2018) ******* ID# 0 ********

 ** Profile: "SCHEMATIC1-HEHE"  [ D:\Orcad Projects\Diode_cap_calc\Diode_cap_calc-PSpiceFiles\SCHEMATIC1\HEHE.sim ] 


 ****     JOB STATISTICS SUMMARY


******************************************************************************



  Total job time (using Solver 1)   =         .08
