
**** 04/28/23 22:39:26 ******* PSpice 17.4.0 (Nov 2018) ******* ID# 0 ********

 ** Profile: "SCHEMATIC1-time_sys"  [ D:\Orcad Projects\prep6_analog2\prep6_analog2-PSpiceFiles\SCHEMATIC1\time_sys.sim ] 


 ****     CIRCUIT DESCRIPTION


******************************************************************************




** Creating circuit file "time_sys.cir" 
** WARNING: THIS AUTOMATICALLY GENERATED FILE MAY BE OVERWRITTEN BY SUBSEQUENT SIMULATIONS

*Libraries: 
* Profile Libraries :
* Local Libraries :
* From [PSPICE NETLIST] section of C:\Users\sixsi\AppData\Roaming\SPB_Data\cdssetup\OrCAD_PSpice\17.4.0\PSpice.ini file:
.lib "nom.lib" 

*Analysis directives: 
.TRAN  0 5m 0 1u 
.OPTIONS ADVCONV
.PROBE64 V(alias(*)) I(alias(*)) W(alias(*)) D(alias(*)) NOISE(alias(*)) 
.INC "..\SCHEMATIC1.net" 



**** INCLUDING SCHEMATIC1.net ****
* source PREP6_ANALOG2
X_U1A         N00887 N00760 +15V -15V LPFO LM324
R_R1         LPFI N01053  10k TC=0,0 
R_R2         N01053 N00887  10k TC=0,0 
R_R3         0 N00760  10k TC=0,0 
R_R4         N00760 LPFO  1.5k TC=0,0 
C_C1         N01053 LPFO  .01u  TC=0,0 
C_C2         0 N00887  .01u  TC=0,0 
V_V1         +15V 0 15V
V_V2         0 -15V 15V
V_V3         LPFI 0  AC 1
+SIN 0 5 1k 0 0 0
X_U1B         N01790 N01816 +15V -15V HPFO LM324
V_V4         HPFI 0  AC 1
+SIN 0 5 1k 0 0 0
R_R5         N01690 HPFO  10k TC=0,0 
R_R6         N01816 HPFO  1k TC=0,0 
R_R7         0 N01816  27k TC=0,0 
R_R8         0 N01790  10k TC=0,0 
C_C3         N01690 N01790  .01u  TC=0,0 
C_C4         HPFI N01690  .01u  TC=0,0 
X_U2A         N07907 A +15V -15V A LM324
X_U2B         B N08871 +15V -15V VOUT LM324
X_U2C         N08562 B +15V -15V B LM324
X_U2D         A N07650 +15V -15V N07650 LM324
R_R9         0 N08871  10k TC=0,0 
R_R10         N08871 VOUT  220k TC=0,0 
R_R11         VIN N07835  15k TC=0,0 
R_R12         N07835 N07907  15k TC=0,0 
C_C5         N07907 0  1n  TC=0,0 
C_C6         N07835 A  1n  TC=0,0 
C_C7         N07650 N08566  1n  TC=0,0 
C_C8         N08566 N08562  1n  TC=0,0 
R_R15         N08566 B  17.68k TC=0,0 
R_R16         0 N08562  17.68k TC=0,0 
V_V5         VIN 0  AC 1
+SIN 0 1 10k 0 0 0
V_V6         N11470 0  AC 1
+SIN 5 1 1k 0 0 0
R_R18         N11358 N11490  {MYR} TC=0,0 
C_C10         0 N11490  1n  TC=0,0 
C_C9         N11358 N11370  1n  TC=0,0 
X_U3A         N11490 N11370 +15V -15V N11370 LM324
R_R17         N11470 N11358  {MYR} TC=0,0 
C_C11         N12135 VOUT_4TH  1n  TC=0,0 
C_C12         0 N12267  1n  TC=0,0 
R_R21         N12297 VOUT_4TH  10k TC=0,0 
R_R19         N11370 N12135  {MYR} TC=0,0 
R_R22         0 N12297  10k TC=0,0 
R_R20         N12135 N12267  {MYR} TC=0,0 
X_U3B         N12267 N12297 +15V -15V VOUT_4TH LM324
V_V7         +30V 0 30V
R_R26         N15369 N15623  {MYR} TC=0,0 
C_C16         0 N15623  1n  TC=0,0 
C_C13         N15329 N15341  1n  TC=0,0 
C_C14         N15369 VOUT_4TH_NEW  1n  TC=0,0 
C_C15         0 N15513  1n  TC=0,0 
R_R28         0 N15665  10k TC=0,0 
R_R23         N15495 N15329  {MYR} TC=0,0 
R_R24         N15329 N15513  {MYR} TC=0,0 
R_R27         N15665 VOUT_4TH_NEW  10k TC=0,0 
R_R25         N15341 N15369  {MYR} TC=0,0 
V_V8         N15495 0  AC 1
+SIN 5 1 1k 0 0 0
X_U4B         N15623 N15665 +30V 0 VOUT_4TH_NEW LM324
X_U4C         N15513 N15341 +30V 0 N15341 LM324
R_R34         0 N23639  10k TC=0,0 
C_C19         N23125 N23437  1n  TC=0,0 
V_V9         VI 0  AC 1
+SIN 0 1 10k 0 0 0
R_R29         N23125 N23135  17.68k TC=0,0 
C_C20         N23247 0  1n  TC=0,0 
R_R31         N23067 N23247  15k TC=0,0 
R_R30         VI N23067  15k TC=0,0 
C_C18         N23417 N23125  1n  TC=0,0 
R_R32         0 N23437  17.68k TC=0,0 
C_C17         N23067 N23077  1n  TC=0,0 
R_R33         N23639 VO_HOME  220k TC=0,0 
X_U5A         N23247 N23077 +30V 0 N23077 LM324
X_U5B         N23077 N23417 V+ N23543 N23417 LM324
X_U5C         N23437 N23135 V+ V- N23135 LM324
X_U5D         N23135 N23639 V+ N23655 VO_HOME LM324
.PARAM  myr=20k

**** RESUMING time_sys.cir ****
.END

**** 04/28/23 22:39:26 ******* PSpice 17.4.0 (Nov 2018) ******* ID# 0 ********

 ** Profile: "SCHEMATIC1-time_sys"  [ D:\Orcad Projects\prep6_analog2\prep6_analog2-PSpiceFiles\SCHEMATIC1\time_sys.sim ] 


 ****     Diode MODEL PARAMETERS


******************************************************************************




               X_U1A.dx        X_U1A.dy        X_U1B.dx        X_U1B.dy        
          IS  800.000000E-18  800.000000E-18  800.000000E-18  800.000000E-18 
          RS    1               1.000000E-03    1               1.000000E-03 
         CJO                   10.000000E-12                   10.000000E-12 


               X_U2A.dx        X_U2A.dy        X_U2B.dx        X_U2B.dy        
          IS  800.000000E-18  800.000000E-18  800.000000E-18  800.000000E-18 
          RS    1               1.000000E-03    1               1.000000E-03 
         CJO                   10.000000E-12                   10.000000E-12 


               X_U2C.dx        X_U2C.dy        X_U2D.dx        X_U2D.dy        
          IS  800.000000E-18  800.000000E-18  800.000000E-18  800.000000E-18 
          RS    1               1.000000E-03    1               1.000000E-03 
         CJO                   10.000000E-12                   10.000000E-12 


               X_U3A.dx        X_U3A.dy        X_U3B.dx        X_U3B.dy        
          IS  800.000000E-18  800.000000E-18  800.000000E-18  800.000000E-18 
          RS    1               1.000000E-03    1               1.000000E-03 
         CJO                   10.000000E-12                   10.000000E-12 


               X_U4B.dx        X_U4B.dy        X_U4C.dx        X_U4C.dy        
          IS  800.000000E-18  800.000000E-18  800.000000E-18  800.000000E-18 
          RS    1               1.000000E-03    1               1.000000E-03 
         CJO                   10.000000E-12                   10.000000E-12 


               X_U5A.dx        X_U5A.dy        X_U5B.dx        X_U5B.dy        
          IS  800.000000E-18  800.000000E-18  800.000000E-18  800.000000E-18 
          RS    1               1.000000E-03    1               1.000000E-03 
         CJO                   10.000000E-12                   10.000000E-12 


               X_U5C.dx        X_U5C.dy        X_U5D.dx        X_U5D.dy        
          IS  800.000000E-18  800.000000E-18  800.000000E-18  800.000000E-18 
          RS    1               1.000000E-03    1               1.000000E-03 
         CJO                   10.000000E-12                   10.000000E-12 


**** 04/28/23 22:39:26 ******* PSpice 17.4.0 (Nov 2018) ******* ID# 0 ********

 ** Profile: "SCHEMATIC1-time_sys"  [ D:\Orcad Projects\prep6_analog2\prep6_analog2-PSpiceFiles\SCHEMATIC1\time_sys.sim ] 


 ****     BJT MODEL PARAMETERS


******************************************************************************




               X_U1A.qx        X_U1B.qx        X_U2A.qx        X_U2B.qx        
               PNP             PNP             PNP             PNP             
       LEVEL    1               1               1               1            
          IS  800.000000E-18  800.000000E-18  800.000000E-18  800.000000E-18 
          BF  166.7           166.7           166.7           166.7          
          NF    1               1               1               1            
          BR    1               1               1               1            
          NR    1               1               1               1            
         ISS    0               0               0               0            
          RE    0               0               0               0            
          RC    0               0               0               0            
         CJE    0               0               0               0            
         VJE     .75             .75             .75             .75         
         CJC    0               0               0               0            
         VJC     .75             .75             .75             .75         
         MJC     .33             .33             .33             .33         
        XCJC    1               1               1               1            
         CJS    0               0               0               0            
         VJS     .75             .75             .75             .75         
          KF    0               0               0               0            
          AF    1               1               1               1            
          CN    2.2             2.2             2.2             2.2          
           D     .52             .52             .52             .52         


               X_U2C.qx        X_U2D.qx        X_U3A.qx        X_U3B.qx        
               PNP             PNP             PNP             PNP             
       LEVEL    1               1               1               1            
          IS  800.000000E-18  800.000000E-18  800.000000E-18  800.000000E-18 
          BF  166.7           166.7           166.7           166.7          
          NF    1               1               1               1            
          BR    1               1               1               1            
          NR    1               1               1               1            
         ISS    0               0               0               0            
          RE    0               0               0               0            
          RC    0               0               0               0            
         CJE    0               0               0               0            
         VJE     .75             .75             .75             .75         
         CJC    0               0               0               0            
         VJC     .75             .75             .75             .75         
         MJC     .33             .33             .33             .33         
        XCJC    1               1               1               1            
         CJS    0               0               0               0            
         VJS     .75             .75             .75             .75         
          KF    0               0               0               0            
          AF    1               1               1               1            
          CN    2.2             2.2             2.2             2.2          
           D     .52             .52             .52             .52         


               X_U4B.qx        X_U4C.qx        X_U5A.qx        X_U5B.qx        
               PNP             PNP             PNP             PNP             
       LEVEL    1               1               1               1            
          IS  800.000000E-18  800.000000E-18  800.000000E-18  800.000000E-18 
          BF  166.7           166.7           166.7           166.7          
          NF    1               1               1               1            
          BR    1               1               1               1            
          NR    1               1               1               1            
         ISS    0               0               0               0            
          RE    0               0               0               0            
          RC    0               0               0               0            
         CJE    0               0               0               0            
         VJE     .75             .75             .75             .75         
         CJC    0               0               0               0            
         VJC     .75             .75             .75             .75         
         MJC     .33             .33             .33             .33         
        XCJC    1               1               1               1            
         CJS    0               0               0               0            
         VJS     .75             .75             .75             .75         
          KF    0               0               0               0            
          AF    1               1               1               1            
          CN    2.2             2.2             2.2             2.2          
           D     .52             .52             .52             .52         


               X_U5C.qx        X_U5D.qx        
               PNP             PNP             
       LEVEL    1               1            
          IS  800.000000E-18  800.000000E-18 
          BF  166.7           166.7          
          NF    1               1            
          BR    1               1            
          NR    1               1            
         ISS    0               0            
          RE    0               0            
          RC    0               0            
         CJE    0               0            
         VJE     .75             .75         
         CJC    0               0            
         VJC     .75             .75         
         MJC     .33             .33         
        XCJC    1               1            
         CJS    0               0            
         VJS     .75             .75         
          KF    0               0            
          AF    1               1            
          CN    2.2             2.2          
           D     .52             .52         


**** 04/28/23 22:39:26 ******* PSpice 17.4.0 (Nov 2018) ******* ID# 0 ********

 ** Profile: "SCHEMATIC1-time_sys"  [ D:\Orcad Projects\prep6_analog2\prep6_analog2-PSpiceFiles\SCHEMATIC1\time_sys.sim ] 


 ****     Current Controlled Switch MODEL PARAMETERS


******************************************************************************




               X_U1A.sw2       X_U1A.sw1       X_U1A.sw3       X_U1A.sw4       
         RON    1               1               1               1            
        ROFF   10.000000E+06   10.000000E+06   10.000000E+06   10.000000E+06 
         ION    0              -1.000000E-06   -1.000000E-06    0            
        IOFF   -1.000000E-06    0               0              -1.000000E-06 


               X_U1B.sw2       X_U1B.sw1       X_U1B.sw3       X_U1B.sw4       
         RON    1               1               1               1            
        ROFF   10.000000E+06   10.000000E+06   10.000000E+06   10.000000E+06 
         ION    0              -1.000000E-06   -1.000000E-06    0            
        IOFF   -1.000000E-06    0               0              -1.000000E-06 


               X_U2A.sw2       X_U2A.sw1       X_U2A.sw3       X_U2A.sw4       
         RON    1               1               1               1            
        ROFF   10.000000E+06   10.000000E+06   10.000000E+06   10.000000E+06 
         ION    0              -1.000000E-06   -1.000000E-06    0            
        IOFF   -1.000000E-06    0               0              -1.000000E-06 


               X_U2B.sw2       X_U2B.sw1       X_U2B.sw3       X_U2B.sw4       
         RON    1               1               1               1            
        ROFF   10.000000E+06   10.000000E+06   10.000000E+06   10.000000E+06 
         ION    0              -1.000000E-06   -1.000000E-06    0            
        IOFF   -1.000000E-06    0               0              -1.000000E-06 


               X_U2C.sw2       X_U2C.sw1       X_U2C.sw3       X_U2C.sw4       
         RON    1               1               1               1            
        ROFF   10.000000E+06   10.000000E+06   10.000000E+06   10.000000E+06 
         ION    0              -1.000000E-06   -1.000000E-06    0            
        IOFF   -1.000000E-06    0               0              -1.000000E-06 


               X_U2D.sw2       X_U2D.sw1       X_U2D.sw3       X_U2D.sw4       
         RON    1               1               1               1            
        ROFF   10.000000E+06   10.000000E+06   10.000000E+06   10.000000E+06 
         ION    0              -1.000000E-06   -1.000000E-06    0            
        IOFF   -1.000000E-06    0               0              -1.000000E-06 


               X_U3A.sw2       X_U3A.sw1       X_U3A.sw3       X_U3A.sw4       
         RON    1               1               1               1            
        ROFF   10.000000E+06   10.000000E+06   10.000000E+06   10.000000E+06 
         ION    0              -1.000000E-06   -1.000000E-06    0            
        IOFF   -1.000000E-06    0               0              -1.000000E-06 


               X_U3B.sw2       X_U3B.sw1       X_U3B.sw3       X_U3B.sw4       
         RON    1               1               1               1            
        ROFF   10.000000E+06   10.000000E+06   10.000000E+06   10.000000E+06 
         ION    0              -1.000000E-06   -1.000000E-06    0            
        IOFF   -1.000000E-06    0               0              -1.000000E-06 


               X_U4B.sw2       X_U4B.sw1       X_U4B.sw3       X_U4B.sw4       
         RON    1               1               1               1            
        ROFF   10.000000E+06   10.000000E+06   10.000000E+06   10.000000E+06 
         ION    0              -1.000000E-06   -1.000000E-06    0            
        IOFF   -1.000000E-06    0               0              -1.000000E-06 


               X_U4C.sw2       X_U4C.sw1       X_U4C.sw3       X_U4C.sw4       
         RON    1               1               1               1            
        ROFF   10.000000E+06   10.000000E+06   10.000000E+06   10.000000E+06 
         ION    0              -1.000000E-06   -1.000000E-06    0            
        IOFF   -1.000000E-06    0               0              -1.000000E-06 


               X_U5A.sw2       X_U5A.sw1       X_U5A.sw3       X_U5A.sw4       
         RON    1               1               1               1            
        ROFF   10.000000E+06   10.000000E+06   10.000000E+06   10.000000E+06 
         ION    0              -1.000000E-06   -1.000000E-06    0            
        IOFF   -1.000000E-06    0               0              -1.000000E-06 


               X_U5B.sw2       X_U5B.sw1       X_U5B.sw3       X_U5B.sw4       
         RON    1               1               1               1            
        ROFF   10.000000E+06   10.000000E+06   10.000000E+06   10.000000E+06 
         ION    0              -1.000000E-06   -1.000000E-06    0            
        IOFF   -1.000000E-06    0               0              -1.000000E-06 


               X_U5C.sw2       X_U5C.sw1       X_U5C.sw3       X_U5C.sw4       
         RON    1               1               1               1            
        ROFF   10.000000E+06   10.000000E+06   10.000000E+06   10.000000E+06 
         ION    0              -1.000000E-06   -1.000000E-06    0            
        IOFF   -1.000000E-06    0               0              -1.000000E-06 


               X_U5D.sw2       X_U5D.sw1       X_U5D.sw3       X_U5D.sw4       
         RON    1               1               1               1            
        ROFF   10.000000E+06   10.000000E+06   10.000000E+06   10.000000E+06 
         ION    0              -1.000000E-06   -1.000000E-06    0            
        IOFF   -1.000000E-06    0               0              -1.000000E-06 


**** 04/28/23 22:39:26 ******* PSpice 17.4.0 (Nov 2018) ******* ID# 0 ********

 ** Profile: "SCHEMATIC1-time_sys"  [ D:\Orcad Projects\prep6_analog2\prep6_analog2-PSpiceFiles\SCHEMATIC1\time_sys.sim ] 


 ****     INITIAL TRANSIENT SOLUTION       TEMPERATURE =   27.000 DEG C


******************************************************************************



 NODE   VOLTAGE     NODE   VOLTAGE     NODE   VOLTAGE     NODE   VOLTAGE


(    A)     .0011  (    B) 598.1E-06  (   V+)     .6905  (   V-)    -.1645      

(   VI)    0.0000  (  VIN)    0.0000  ( +15V)   15.0000  ( +30V)   30.0000      

( -15V)  -15.0000  ( HPFI)    0.0000  ( HPFO) 219.1E-06  ( LPFI)    0.0000      

( LPFO) 739.7E-06  ( VOUT)-564.7E-06  (N00760) 701.8E-06 (N00887) 894.6E-06     

(N01053) 447.3E-06 (N01690) 219.1E-06 (N01790) 447.3E-06 (N01816) 254.7E-06     

(N07650) 956.1E-06 (N07835) 671.0E-06 (N07907)     .0013 (N08562) 790.8E-06     

(N08566) 598.1E-06 (N08871) 405.4E-06 (N11358)    5.0009 (N11370)    4.9999     

(N11470)    5.0000 (N11490)    5.0017 (N12135)    5.0007 (N12267)    5.0016     

(N12297)    4.9996 (N15329)    5.0010 (N15341)    5.0049 (N15369)    5.0059     

(N15495)    5.0000 (N15513)    5.0020 (N15623)    5.0069 (N15665)    5.0098     

(N23067) 827.4E-06 (N23077)     .0134 (N23125)    -.0057 (N23135)    -.0057     

(N23247)     .0017 (N23417)     .0041 (N23437) 730.4E-06 (N23543)    -.1550     

(N23639)    -.0058 (N23655)    -.2985 (VO_HOME)    -.1429                       

(X_U1A.6)-140.1E-09                   (X_U1A.7) 740.9E-06                       

(X_U1A.8) 740.9E-06                   (X_U1A.9)    0.0000                       

(X_U1A.a)   15.0000                   (X_U1A.b)-1.525E-06                       

(X_U1B.6)-41.07E-09                   (X_U1B.7) 217.4E-06                       

(X_U1B.8) 217.4E-06                   (X_U1B.9)    0.0000                       

(X_U1B.a)   15.0000                   (X_U1B.b)-1.652E-06                       

(X_U2A.6)-215.6E-09                   (X_U2A.7)     .0011                       

(X_U2A.8)     .0011                   (X_U2A.9)    0.0000                       

(X_U2A.a)   15.0000                   (X_U2A.b)-2.987E-06                       

(X_U2B.6) 106.2E-09                   (X_U2B.7)-564.9E-06                       

(X_U2B.8)-564.9E-06                   (X_U2B.9)    0.0000                       

(X_U2B.a)   15.0000                   (X_U2B.b)-1.498E-06                       

(X_U2C.6)-111.8E-09                   (X_U2C.7) 593.6E-06                       

(X_U2C.8) 593.6E-06                   (X_U2C.9)    0.0000                       

(X_U2C.a)   15.0000                   (X_U2C.b)-2.987E-06                       

(X_U2D.6)-179.9E-09                   (X_U2D.7) 953.8E-06                       

(X_U2D.8) 953.8E-06                   (X_U2D.9)    0.0000                       

(X_U2D.a)   15.0000                   (X_U2D.b)-1.764E-06                       

(X_U3A.6)-942.5E-06                   (X_U3A.7)    4.9998                       

(X_U3A.8)    4.9998                   (X_U3A.9)    0.0000                       

(X_U3A.a)   15.0000                   (X_U3A.b)-2.883E-06                       

(X_U3B.6)    -.0019                   (X_U3B.7)   10.0240                       

(X_U3B.8)   10.0240                   (X_U3B.9)    0.0000                       

(X_U3B.a)   15.0000                   (X_U3B.b)-501.4E-06                       

(X_U4B.6) 931.7E-06                   (X_U4B.7)   10.0440                       

(X_U4B.8)   10.0440                   (X_U4B.9)    0.0000                       

(X_U4B.a)   30.0000                   (X_U4B.b)-500.9E-06                       

(X_U4C.6)     .0019                   (X_U4C.7)    5.0049                       

(X_U4C.8)    5.0049                   (X_U4C.9)    0.0000                       

(X_U4C.a)   30.0000                   (X_U4C.b) 140.8E-09                       

(X_U5A.6)     .1454                   (X_U5A.7)   -1.4948                       

(X_U5A.8)   -1.4948                   (X_U5A.9)    0.0000                       

(X_U5A.a)     .0302                   (X_U5A.b)     .0302                       

(X_U5B.6)    -.1726                   (X_U5B.7)    1.8306                       

(X_U5B.8)    1.8306                   (X_U5B.9)    0.0000                       

(X_U5B.a)     .6540                   (X_U5B.b)    -.0365                       

(X_U5C.6)    -.1181                   (X_U5C.7)    1.2442                       

(X_U5C.8)    1.2442                   (X_U5C.9)    0.0000                       

(X_U5C.a)     .6655                   (X_U5C.b)    -.0250                       

(X_U5D.6) 62.01E-06                   (X_U5D.7)    -.1429                       

(X_U5D.8)    -.1429                   (X_U5D.9)    0.0000                       

(X_U5D.a)     .6905                   (X_U5D.b)-86.14E-09                       

(VOUT_4TH)    9.9988                  (X_U1A.10)     .6085                      

(X_U1A.11)  -14.9600                  (X_U1A.12)  -14.9600                      

(X_U1A.13)     .5946                  (X_U1A.14)     .5946                      

(X_U1A.53)   13.5000                  (X_U1A.54)  -14.1780                      

(X_U1A.90) 25.23E-06                  (X_U1A.91)   40.0000                      

(X_U1A.92)  -40.0000                  (X_U1A.99)    0.0000                      

(X_U1B.10)     .6080                  (X_U1B.11)  -14.9600                      

(X_U1B.12)  -14.9600                  (X_U1B.13)     .5941                      

(X_U1B.14)     .5942                  (X_U1B.53)   13.5000                      

(X_U1B.54)  -14.1780                  (X_U1B.90)-35.52E-06                      

(X_U1B.91)   40.0000                  (X_U1B.92)  -40.0000                      

(X_U1B.99)    0.0000                  (X_U2A.10)     .6089                      

(X_U2A.11)  -14.9600                  (X_U2A.12)  -14.9600                      

(X_U2A.13)     .5950                  (X_U2A.14)     .5951                      

(X_U2A.53)   13.5000                  (X_U2A.54)  -14.1780                      

(X_U2A.90)-89.68E-06                  (X_U2A.91)   40.0000                      

(X_U2A.92)  -40.0000                  (X_U2A.99)    0.0000                      

(X_U2B.10)     .6082                  (X_U2B.11)  -14.9600                      

(X_U2B.12)  -14.9600                  (X_U2B.13)     .5943                      

(X_U2B.14)     .5943                  (X_U2B.53)   13.5000                      

(X_U2B.54)  -14.1780                  (X_U2B.90)-4.409E-06                      

(X_U2B.91)   40.0000                  (X_U2B.92)  -40.0000                      

(X_U2B.99)    0.0000                  (X_U2C.10)     .6084                      

(X_U2C.11)  -14.9600                  (X_U2C.12)  -14.9600                      

(X_U2C.13)     .5945                  (X_U2C.14)     .5945                      

(X_U2C.53)   13.5000                  (X_U2C.54)  -14.1780                      

(X_U2C.90)-89.68E-06                  (X_U2C.91)   40.0000                      

(X_U2C.92)  -40.0000                  (X_U2C.99)    0.0000                      

(X_U2D.10)     .6087                  (X_U2D.11)  -14.9600                      

(X_U2D.12)  -14.9600                  (X_U2D.13)     .5948                      

(X_U2D.14)     .5949                  (X_U2D.53)   13.5000                      

(X_U2D.54)  -14.1780                  (X_U2D.90)-44.95E-06                      

(X_U2D.91)   40.0000                  (X_U2D.92)  -40.0000                      

(X_U2D.99)    0.0000                  (X_U3A.10)    5.6074                      

(X_U3A.11)  -14.9600                  (X_U3A.12)  -14.9620                      

(X_U3A.13)    5.5936                  (X_U3A.14)    5.5942                      

(X_U3A.53)   13.5000                  (X_U3A.54)  -14.1780                      

(X_U3A.90)-87.38E-06                  (X_U3A.91)   40.0000                      

(X_U3A.92)  -40.0000                  (X_U3A.99)    0.0000                      

(X_U3B.10)    5.6073                  (X_U3B.11)  -14.9600                      

(X_U3B.12)  -14.9620                  (X_U3B.13)    5.5934                      

(X_U3B.14)    5.5941                  (X_U3B.53)   13.5000                      

(X_U3B.54)  -14.1780                  (X_U3B.90)     .4999                      

(X_U3B.91)   40.0000                  (X_U3B.92)  -40.0000                      

(X_U3B.99)    0.0000                  (X_U4B.10)    5.6180                      

(X_U4B.11)     .0401                  (X_U4B.12)     .0432                      

(X_U4B.13)    5.6039                  (X_U4B.14)    5.6029                      

(X_U4B.53)   28.5000                  (X_U4B.54)     .8220                      

(X_U4B.90)     .5009                  (X_U4B.91)   40.0000                      

(X_U4B.92)  -40.0000                  (X_U4B.99)   15.0000                      

(X_U4C.10)    5.6131                  (X_U4C.11)     .0401                      

(X_U4C.12)     .0432                  (X_U4C.13)    5.5990                      

(X_U4C.14)    5.5980                  (X_U4C.53)   28.5000                      

(X_U4C.54)     .8220                  (X_U4C.90)-94.19E-06                      

(X_U4C.91)   40.0000                  (X_U4C.92)  -40.0000                      

(X_U4C.99)   15.0000                  (X_U5A.10)     .6179                      

(X_U5A.11)     .0365                  (X_U5A.12)     .0488                      

(X_U5A.13)     .6051                  (X_U5A.14)     .6008                      

(X_U5A.53)   28.5000                  (X_U5A.54)     .8220                      

(X_U5A.90)  -30.1650                  (X_U5A.91)   40.0000                      

(X_U5A.92)  -40.0000                  (X_U5A.99)   15.0000                      

(X_U5B.10)     .6163                  (X_U5B.11)    -.1106                      

(X_U5B.12)    -.1199                  (X_U5B.13)     .6008                      

(X_U5B.14)     .6041                  (X_U5B.53)    -.8095                      

(X_U5B.54)     .6670                  (X_U5B.90)   36.5300                      

(X_U5B.91)   40.0000                  (X_U5B.92)  -40.0000                      

(X_U5B.99)     .2678                  (X_U5C.10)     .6052                      

(X_U5C.11)    -.1216                  (X_U5C.12)    -.1280                      

(X_U5C.13)     .5902                  (X_U5C.14)     .5924                      

(X_U5C.53)    -.8095                  (X_U5C.54)     .6575                      

(X_U5C.90)   24.9970                  (X_U5C.91)   40.0000                      

(X_U5C.92)  -40.0000                  (X_U5C.99)     .2630                      

(X_U5D.10)     .6020                  (X_U5D.11)    -.2587                      

(X_U5D.12)    -.2588                  (X_U5D.13)     .5881                      

(X_U5D.14)     .5881                  (X_U5D.53)    -.8095                      

(X_U5D.54)     .5235                  (X_U5D.90)-223.9E-06                      

(X_U5D.91)   40.0000                  (X_U5D.92)  -40.0000                      

(X_U5D.99)     .1960                  (VOUT_4TH_NEW)   10.0190              




    VOLTAGE SOURCE CURRENTS
    NAME         CURRENT

    V_V1        -2.706E-02
    V_V2        -2.656E-02
    V_V3         4.473E-08
    V_V4         0.000E+00
    V_V5         4.473E-08
    V_V6         4.268E-08
    V_V7        -1.047E-02
    V_V8         4.883E-08
    V_V9         5.516E-08
    X_U1A.vb    -1.401E-12
    X_U1A.vc     1.350E-11
    X_U1A.ve     1.612E-11
    X_U1A.vlim   2.523E-08
    X_U1A.vlp   -4.000E-11
    X_U1A.vln   -4.000E-11
    X_U1B.vb    -4.107E-13
    X_U1B.vc     1.350E-11
    X_U1B.ve     1.612E-11
    X_U1B.vlim  -3.552E-08
    X_U1B.vlp   -4.000E-11
    X_U1B.vln   -4.000E-11
    X_U2A.vb    -2.156E-12
    X_U2A.vc     1.350E-11
    X_U2A.ve     1.612E-11
    X_U2A.vlim  -8.968E-08
    X_U2A.vlp   -4.000E-11
    X_U2A.vln   -4.000E-11
    X_U2B.vb     1.062E-12
    X_U2B.vc     1.350E-11
    X_U2B.ve     1.612E-11
    X_U2B.vlim  -4.409E-09
    X_U2B.vlp   -4.000E-11
    X_U2B.vln   -4.000E-11
    X_U2C.vb    -1.118E-12
    X_U2C.vc     1.350E-11
    X_U2C.ve     1.612E-11
    X_U2C.vlim  -8.968E-08
    X_U2C.vlp   -4.000E-11
    X_U2C.vln   -4.000E-11
    X_U2D.vb    -1.799E-12
    X_U2D.vc     1.350E-11
    X_U2D.ve     1.612E-11
    X_U2D.vlim  -4.495E-08
    X_U2D.vlp   -4.000E-11
    X_U2D.vln   -4.000E-11
    X_U3A.vb    -9.425E-09
    X_U3A.vc     8.501E-12
    X_U3A.ve     2.112E-11
    X_U3A.vlim  -8.738E-08
    X_U3A.vlp   -4.000E-11
    X_U3A.vln   -4.000E-11
    X_U3B.vb    -1.892E-08
    X_U3B.vc     3.502E-12
    X_U3B.ve     2.612E-11
    X_U3B.vlim   4.999E-04
    X_U3B.vlp   -3.950E-11
    X_U3B.vln   -4.050E-11
    X_U4B.vb     9.317E-09
    X_U4B.vc     1.848E-11
    X_U4B.ve     9.085E-12
    X_U4B.vlim   5.009E-04
    X_U4B.vlp   -3.950E-11
    X_U4B.vln   -4.051E-11
    X_U4C.vb     1.884E-08
    X_U4C.vc     2.350E-11
    X_U4C.ve     4.071E-12
    X_U4C.vlim  -9.419E-08
    X_U4C.vlp   -4.000E-11
    X_U4C.vln   -4.000E-11
    X_U5A.vb     1.454E-06
    X_U5A.vc     2.849E-11
    X_U5A.ve    -3.017E-02
    X_U5A.vlim  -3.017E-02
    X_U5A.vlp   -7.017E-11
    X_U5A.vln   -9.839E-12
    X_U5B.vb    -1.726E-06
    X_U5B.vc    -3.664E-02
    X_U5B.ve    -1.081E-04
    X_U5B.vlim   3.653E-02
    X_U5B.vlp   -3.471E-12
    X_U5B.vln   -7.653E-11
    X_U5C.vb    -1.181E-06
    X_U5C.vc    -2.511E-02
    X_U5C.ve    -1.091E-04
    X_U5C.vlim   2.500E-02
    X_U5C.vlp   -1.500E-11
    X_U5C.vln   -6.500E-11
    X_U5D.vb     6.201E-10
    X_U5D.vc    -1.245E-04
    X_U5D.ve    -1.241E-04
    X_U5D.vlim  -2.239E-07
    X_U5D.vlp   -4.000E-11
    X_U5D.vln   -4.000E-11

    TOTAL POWER DISSIPATION   1.24E+00  WATTS

Reducing minimum delta to make the circuit converge.
Reducing minimum delta to make the circuit converge.
Reducing minimum delta to make the circuit converge.
Reducing minimum delta to make the circuit converge.

ERROR(ORPSIM-15138): Convergence problem in Transient Analysis at Time =  5.432E-06.
         Time step =  435.3E-21, minimum allowable step size =  1.000E-18

  These voltages failed to converge:

    V(X_U3A.90)               =   -1.355mV  \   -1.374mV
    V(X_U4C.90)               =   -1.401mV  \   -1.381mV
    V(X_U5D.90)               =  -489.60uV  \  -499.84uV
    V(X_U5D.a)                =   324.18mV  \   260.23mV
    V(X_U5D.b)                =  -167.66mV  \  -223.34mV

  These supply currents failed to converge:

    I(X_U2C.egnd)             =    98.18nA  \    98.08nA
    I(X_U3A.egnd)             =    1.770uA  \    1.792uA
    I(X_U4C.egnd)             =   690.18nA  \   667.01nA
    I(V_V4)                   =   -16.57uA  \   -16.49uA
    I(V_V7)                   =   -10.17mA  \   -10.43mA
    I(X_U1A.vc)               =  -551.26pA  \  -114.16pA
    I(X_U1A.ve)               =   581.87pA  \   138.66pA
    I(X_U1B.vc)               =   -75.13nA  \   -74.34nA
    I(X_U1B.ve)               =    72.69nA  \    71.90nA
    I(X_U2A.vc)               =    -9.87nA  \   -7.905nA
    I(X_U2A.ve)               =     9.71nA  \    7.750nA
    I(X_U2B.vc)               =   -48.09nA  \   -47.65nA
    I(X_U2B.ve)               =    46.96nA  \    46.52nA
    I(X_U2C.vc)               =   -6.310nA  \   -5.748nA
    I(X_U2C.ve)               =    6.189nA  \    5.646nA
    I(X_U2D.vc)               =   -6.955nA  \   -7.483nA
    I(X_U2D.ve)               =    6.800nA  \    7.338nA
    I(X_U3A.vc)               =   101.90nA  \  -557.40pA
    I(X_U3A.ve)               =  -102.34nA  \   407.90pA
    I(X_U3A.vlim)             =   -1.355uA  \   -1.374uA
    I(X_U3B.vc)               =   -30.35nA  \   -20.20pA
    I(X_U3B.ve)               =    30.70nA  \    23.12pA
    I(X_U4B.vc)               =   -32.65nA  \   -15.87pA
    I(X_U4B.ve)               =    31.58nA  \    16.14pA
    I(X_U4C.vc)               =  -110.11nA  \  -335.18pA
    I(X_U4C.ve)               =   110.61nA  \   787.85pA
    I(X_U4C.vlim)             =   -1.401uA  \   -1.381uA
    I(X_U5A.vc)               =  -297.45uA  \   -33.18uA
    I(X_U5A.ve)               =   -29.60mA  \   -29.34mA
    I(X_U5D.vlim)             =  -489.60nA  \  -499.84nA

  These devices failed to converge:
    X_U1A.dc  X_U1A.de  X_U1B.dc  X_U1B.de  X_U2A.dc  X_U2A.de  X_U2B.dc  
    X_U2B.de  X_U2C.dc  X_U2C.de  X_U2D.dc  X_U2D.de  X_U3A.dc  X_U3A.de  
    X_U3B.dc  X_U3B.de  X_U4B.dc  X_U4B.de  X_U4C.dc  X_U4C.de  



  Last node voltages tried were:

 NODE   VOLTAGE     NODE   VOLTAGE     NODE   VOLTAGE     NODE   VOLTAGE


(    A)     .0069  (    B)     .0047  (   V+)     .5169  (   V-)    -.3351      

(   VI)     .3347  (  VIN)     .3347  ( +15V)   15.0000  ( +30V)   30.0000      

( -15V)  -15.0000  ( HPFI)     .1706  ( HPFO)     .1628  ( LPFI)     .1706      

( LPFO) 853.4E-06  ( VOUT)     .0263  (N00760) 800.7E-06 (N00887) 978.8E-06     

(N01053)     .0050 (N01690)     .1662 (N01790)     .1620 (N01816)     .1570     

(N07650)     .0062 (N07835)     .0546 (N07907)     .0076 (N08562)     .0053     

(N08566)     .0054 (N08871)     .0016 (N11358)    5.0051 (N11370)    5.0002     

(N11470)    5.0341 (N11490)    5.0021 (N12135)    5.0007 (N12267)    5.0016     

(N12297)    4.9996 (N15329)    5.0052 (N15341)    5.0053 (N15369)    5.0059     

(N15495)    5.0341 (N15513)    5.0023 (N15623)    5.0069 (N15665)    5.0098     

(N23067)     .0505 (N23077)     .0142 (N23125)    -.1744 (N23135)    -.1762     

(N23247)     .0075 (N23417)    -.1668 (N23437)    -.1658 (N23543)    -.3260     

(N23639)    -.0133 (N23655)    -.4500 (VO_HOME)    -.3055                       

(X_U1A.6) 64.41E-09                   (X_U1A.7) 47.40E-06                       

(X_U1A.8) 47.40E-06                   (X_U1A.9)    0.0000                       

(X_U1A.a) 17.62E-06                   (X_U1A.b)  -15.0000                       

(X_U1B.6)-31.47E-06                   (X_U1B.7)     .1631                       

(X_U1B.8)     .1631                   (X_U1B.9)    0.0000                       

(X_U1B.a)   15.0000                   (X_U1B.b)-7.075E-06                       

(X_U2A.6)-1.167E-06                   (X_U2A.7)     .0061                       

(X_U2A.8)     .0061                   (X_U2A.9)    0.0000                       

(X_U2A.a) 17.12E-06                   (X_U2A.b)  -15.0000                       

(X_U2B.6)-5.417E-06                   (X_U2B.7)     .0263                       

(X_U2B.8)     .0263                   (X_U2B.9)    0.0000                       

(X_U2B.a)   15.0000                   (X_U2B.b)-1.707E-06                       

(X_U2C.6)-947.8E-09                   (X_U2C.7)     .0047                       

(X_U2C.8)     .0047                   (X_U2C.9)    0.0000                       

(X_U2C.a)   15.0000                   (X_U2C.b)-4.941E-06                       

(X_U2D.6)-1.244E-06                   (X_U2D.7)     .0062                       

(X_U2D.8)     .0062                   (X_U2D.9)    0.0000                       

(X_U2D.a)   15.0000                   (X_U2D.b)-1.764E-06                       

(X_U3A.6)-941.6E-06                   (X_U3A.7)    5.0001                       

(X_U3A.8)    5.0001                   (X_U3A.9)    0.0000                       

(X_U3A.a) 2.855E-06                   (X_U3A.b)  -15.0000                       

(X_U3B.6)    -.0019                   (X_U3B.7)   10.0240                       

(X_U3B.8)   10.0240                   (X_U3B.9)    0.0000                       

(X_U3B.a)   15.0000                   (X_U3B.b)-501.4E-06                       

(X_U4B.6) 931.4E-06                   (X_U4B.7)   10.0440                       

(X_U4B.8)   10.0440                   (X_U4B.9)    0.0000                       

(X_U4B.a)   30.0000                   (X_U4B.b)-500.9E-06                       

(X_U4C.6)     .0019                   (X_U4C.7)    5.0052                       

(X_U4C.8)    5.0052                   (X_U4C.9)    0.0000                       

(X_U4C.a) 4.401E-06                   (X_U4C.b) 1.401E-06                       

(X_U5A.6)     .1413                   (X_U5A.7)   -1.4517                       

(X_U5A.8)   -1.4517                   (X_U5A.9)    0.0000                       

(X_U5A.a)     .0293                   (X_U5A.b)     .0293                       

(X_U5B.6)    -.2973                   (X_U5B.7)    1.8604                       

(X_U5B.8)    1.8604                   (X_U5B.9)    0.0000                       

(X_U5B.a)     .4764                   (X_U5B.b)    -.0405                       

(X_U5C.6)    -.1333                   (X_U5C.7)    1.2342                       

(X_U5C.8)    1.2342                   (X_U5C.9)    0.0000                       

(X_U5C.a)     .4887                   (X_U5C.b)    -.0282                       

(X_U5D.6) 60.01E-06                   (X_U5D.7)    -.3055                       

(X_U5D.8)    -.3055                   (X_U5D.9)    0.0000                       

(X_U5D.a)     .3242                   (X_U5D.b)    -.1677                       

(VOUT_4TH)    9.9988                  (X_U1A.10)     .6086                      

(X_U1A.11)  -14.9600                  (X_U1A.12)  -14.9600                      

(X_U1A.13)     .5947                  (X_U1A.14)     .5947                      

(X_U1A.53)   13.5000                  (X_U1A.54)  -14.1780                      

(X_U1A.90)    -.0161                  (X_U1A.91)   40.0000                      

(X_U1A.92)  -40.0000                  (X_U1A.99)    0.0000                      

(X_U1B.10)     .7671                  (X_U1B.11)  -14.9580                      

(X_U1B.12)  -14.9630                  (X_U1B.13)     .7524                      

(X_U1B.14)     .7541                  (X_U1B.53)   13.5000                      

(X_U1B.54)  -14.1780                  (X_U1B.90)     .0056                      

(X_U1B.91)   40.0000                  (X_U1B.92)  -40.0000                      

(X_U1B.99)    0.0000                  (X_U2A.10)     .6149                      

(X_U2A.11)  -14.9600                  (X_U2A.12)  -14.9610                      

(X_U2A.13)     .6009                  (X_U2A.14)     .6011                      

(X_U2A.53)   13.5000                  (X_U2A.54)  -14.1780                      

(X_U2A.90)    -.0156                  (X_U2A.91)   40.0000                      

(X_U2A.92)  -40.0000                  (X_U2A.99)    0.0000                      

(X_U2B.10)     .6108                  (X_U2B.11)  -14.9590                      

(X_U2B.12)  -14.9620                  (X_U2B.13)     .5964                      

(X_U2B.14)     .5975                  (X_U2B.53)   13.5000                      

(X_U2B.54)  -14.1780                  (X_U2B.90) 206.5E-06                      

(X_U2B.91)   40.0000                  (X_U2B.92)  -40.0000                      

(X_U2B.99)    0.0000                  (X_U2C.10)     .6127                      

(X_U2C.11)  -14.9600                  (X_U2C.12)  -14.9610                      

(X_U2C.13)     .5987                  (X_U2C.14)     .5989                      

(X_U2C.53)   13.5000                  (X_U2C.54)  -14.1780                      

(X_U2C.90)-117.7E-06                  (X_U2C.91)   40.0000                      

(X_U2C.92)  -40.0000                  (X_U2C.99)    0.0000                      

(X_U2D.10)     .6142                  (X_U2D.11)  -14.9600                      

(X_U2D.12)  -14.9610                  (X_U2D.13)     .6002                      

(X_U2D.14)     .6005                  (X_U2D.53)   13.5000                      

(X_U2D.54)  -14.1780                  (X_U2D.90) 264.0E-06                      

(X_U2D.91)   40.0000                  (X_U2D.92)  -40.0000                      

(X_U2D.99)    0.0000                  (X_U3A.10)    5.6078                      

(X_U3A.11)  -14.9600                  (X_U3A.12)  -14.9620                      

(X_U3A.13)    5.5939                  (X_U3A.14)    5.5946                      

(X_U3A.53)   13.5000                  (X_U3A.54)  -14.1780                      

(X_U3A.90)    -.0014                  (X_U3A.91)   40.0000                      

(X_U3A.92)  -40.0000                  (X_U3A.99)    0.0000                      

(X_U3B.10)    5.6073                  (X_U3B.11)  -14.9600                      

(X_U3B.12)  -14.9620                  (X_U3B.13)    5.5934                      

(X_U3B.14)    5.5941                  (X_U3B.53)   13.5000                      

(X_U3B.54)  -14.1780                  (X_U3B.90)     .4999                      

(X_U3B.91)   40.0000                  (X_U3B.92)  -40.0000                      

(X_U3B.99)    0.0000                  (X_U4B.10)    5.6180                      

(X_U4B.11)     .0401                  (X_U4B.12)     .0432                      

(X_U4B.13)    5.6039                  (X_U4B.14)    5.6029                      

(X_U4B.53)   28.5000                  (X_U4B.54)     .8220                      

(X_U4B.90)     .5009                  (X_U4B.91)   40.0000                      

(X_U4B.92)  -40.0000                  (X_U4B.99)   15.0000                      

(X_U4C.10)    5.6134                  (X_U4C.11)     .0401                      

(X_U4C.12)     .0432                  (X_U4C.13)    5.5994                      

(X_U4C.14)    5.5983                  (X_U4C.53)   28.5000                      

(X_U4C.54)     .8220                  (X_U4C.90)    -.0014                      

(X_U4C.91)   40.0000                  (X_U4C.92)  -40.0000                      

(X_U4C.99)   15.0000                  (X_U5A.10)     .6213                      

(X_U5A.11)     .0391                  (X_U5A.12)     .0462                      

(X_U5A.13)     .6076                  (X_U5A.14)     .6052                      

(X_U5A.53)   28.5000                  (X_U5A.54)     .8220                      

(X_U5A.90)  -29.3180                  (X_U5A.91)   40.0000                      

(X_U5A.92)  -40.0000                  (X_U5A.99)   15.0000                      

(X_U5B.10)     .4726                  (X_U5B.11)    -.2470                      

(X_U5B.12)    -.3255                  (X_U5B.13)     .4449                      

(X_U5B.14)     .4725                  (X_U5B.53)    -.9831                      

(X_U5B.54)     .4960                  (X_U5B.90)   40.5450                      

(X_U5B.91)   40.0000                  (X_U5B.92)  -40.0000                      

(X_U5B.99)     .0955                  (X_U5C.10)     .4365                      

(X_U5C.11)    -.2904                  (X_U5C.12)    -.3004                      

(X_U5C.13)     .4208                  (X_U5C.14)     .4244                      

(X_U5C.53)    -.9831                  (X_U5C.54)     .4869                      

(X_U5C.90)   28.2080                  (X_U5C.91)   40.0000                      

(X_U5C.92)  -40.0000                  (X_U5C.99)     .0909                      

(X_U5D.10)     .4631                  (X_U5D.11)    -.4490                      

(X_U5D.12)    -.3715                  (X_U5D.13)     .4629                      

(X_U5D.14)     .4354                  (X_U5D.53)    -.9831                      

(X_U5D.54)     .3720                  (X_U5D.90)-489.6E-06                      

(X_U5D.91)   40.0000                  (X_U5D.92)  -40.0000                      

(X_U5D.99)     .0335                  (VOUT_4TH_NEW)   10.0190              


**** Interrupt ****
