
**** 11/27/22 12:55:51 ******* PSpice 17.4.0 (Nov 2018) ******* ID# 0 ********

 ** Profile: "SCHEMATIC1-A_ID_VDS"  [ c:\cadence\my projects\lab_analogcad_exp4\lab_analogcad_exp4-PSpiceFiles\SCHEMATIC1\A_ID_VDS.si


 ****     CIRCUIT DESCRIPTION


******************************************************************************




** Creating circuit file "A_ID_VDS.cir" 
** WARNING: THIS AUTOMATICALLY GENERATED FILE MAY BE OVERWRITTEN BY SUBSEQUENT SIMULATIONS

*Libraries: 
* Profile Libraries :
* Local Libraries :
* From [PSPICE NETLIST] section of C:\Users\sixsi\AppData\Roaming\SPB_Data\cdssetup\OrCAD_PSpice\17.4.0\PSpice.ini file:
.lib "nom.lib" 

*Analysis directives: 
.DC LIN V_V6 0 15 0.1 
+ LIN V_V1 0 5 0.5 
.OPTIONS ADVCONV
.PROBE64 V(alias(*)) I(alias(*)) W(alias(*)) D(alias(*)) NOISE(alias(*)) 
.INC "..\SCHEMATIC1.net" 



**** INCLUDING SCHEMATIC1.net ****
* source LAB_ANALOGCAD_EXP4
X_M1         VDS N00248 0 BS170/PLP
X_M2         N00507 N00499 N00503 BS170/PLP
X_M3         N00720 0 N00728 BS170/PLP
V_V1         N00248 0 {Vgs1}
V_V2         VDD_12V 0 12Vdc
R_RD         N00507 VDD_12V  1k TC=0,0 
R_RG1         N00499 VDD_12V  100k TC=0,0 
R_RG2         0 N00499  70k TC=0,0 
R_RS         0 N00503  1.5k TC=0,0 
R_R5         VDD_5V N00720  1k TC=0,0 
R_R6         N00728 VSS_-5V  1k TC=0,0 
X_M4         N00991 0 N01029 BS170/PLP
R_R7         VDD_5V N00991  1k TC=0,0 
R_R8         N01029 VSS_-5V  1k TC=0,0 
V_V3         VSS_-5V 0 -5Vdc
V_V4         VDD_5V 0 5Vdc
C_C1         N01473 N01029  1u  TC=0,0 
C_C2         N00991 N01497  1u  TC=0,0 
R_Rsig         N01473 N01737  1k TC=0,0 
R_RL         0 N01497  1k TC=0,0 
V_V5         N01737 0  
+SIN 0 1 1k 0 0 0
V_V6         VDS 0 1Vdc
.PARAM  vgs1=1

**** RESUMING A_ID_VDS.cir ****
.END

**** 11/27/22 12:55:51 ******* PSpice 17.4.0 (Nov 2018) ******* ID# 0 ********

 ** Profile: "SCHEMATIC1-A_ID_VDS"  [ c:\cadence\my projects\lab_analogcad_exp4\lab_analogcad_exp4-PSpiceFiles\SCHEMATIC1\A_ID_VDS.si


 ****     Diode MODEL PARAMETERS


******************************************************************************




               X_M1.Dbody      X_M2.Dbody      X_M3.Dbody      X_M4.Dbody      
          IS  125.000000E-15  125.000000E-15  125.000000E-15  125.000000E-15 
           N    1.023           1.023           1.023           1.023        
         IKF   18.01           18.01           18.01           18.01         
          BV   60              60              60              60            
         IBV   10.000000E-06   10.000000E-06   10.000000E-06   10.000000E-06 
          RS    1.281           1.281           1.281           1.281        
          TT  161.600000E-09  161.600000E-09  161.600000E-09  161.600000E-09 
         CJO   46.300000E-12   46.300000E-12   46.300000E-12   46.300000E-12 
          VJ     .4519           .4519           .4519           .4519       
           M     .3423           .3423           .3423           .3423       


**** 11/27/22 12:55:51 ******* PSpice 17.4.0 (Nov 2018) ******* ID# 0 ********

 ** Profile: "SCHEMATIC1-A_ID_VDS"  [ c:\cadence\my projects\lab_analogcad_exp4\lab_analogcad_exp4-PSpiceFiles\SCHEMATIC1\A_ID_VDS.si


 ****     MOSFET MODEL PARAMETERS


******************************************************************************




               X_M1.MOST1      X_M1.MOST2      X_M2.MOST1      X_M2.MOST2      
               NMOS            NMOS            NMOS            NMOS            
       LEVEL    3               1               3               1            
           L    2.000000E-06    2.000000E-06    2.000000E-06    2.000000E-06 
           W    9.700000E-03    9.700000E-03    9.700000E-03    9.700000E-03 
         VTO    2              -4.73            2              -4.73         
          KP   20.780000E-06   20.780000E-06   20.780000E-06   20.780000E-06 
       GAMMA    0               0               0               0            
         PHI     .6              .6              .6              .6          
      LAMBDA    0               0               0               0            
          RD    1.186                           1.186                        
          RS     .02             .02             .02             .02         
          IS   10.000000E-15   10.000000E-15   10.000000E-15   10.000000E-15 
          JS    0               0               0               0            
          PB     .8              .8              .8              .8          
        PBSW     .8              .8              .8              .8          
          CJ    0               0               0               0            
        CJSW    0               0               0               0            
        CGSO    0               0               0               0            
        CGDO    0               0               0               0            
        CGBO    0               0               0               0            
         TOX  100.000000E-09    0             100.000000E-09    0            
          XJ    0               0               0               0            
       UCRIT   10.000000E+03   10.000000E+03   10.000000E+03   10.000000E+03 
      DIOMOD    1               1               1               1            
         VFB    0               0               0               0            
        LETA    0               0               0               0            
        WETA    0               0               0               0            
          U0    0               0               0               0            
        TEMP    0               0               0               0            
         VDD    5               5               5               5            
       XPART    0               0               0               0            


               X_M3.MOST1      X_M3.MOST2      X_M4.MOST1      X_M4.MOST2      
               NMOS            NMOS            NMOS            NMOS            
       LEVEL    3               1               3               1            
           L    2.000000E-06    2.000000E-06    2.000000E-06    2.000000E-06 
           W    9.700000E-03    9.700000E-03    9.700000E-03    9.700000E-03 
         VTO    2              -4.73            2              -4.73         
          KP   20.780000E-06   20.780000E-06   20.780000E-06   20.780000E-06 
       GAMMA    0               0               0               0            
         PHI     .6              .6              .6              .6          
      LAMBDA    0               0               0               0            
          RD    1.186                           1.186                        
          RS     .02             .02             .02             .02         
          IS   10.000000E-15   10.000000E-15   10.000000E-15   10.000000E-15 
          JS    0               0               0               0            
          PB     .8              .8              .8              .8          
        PBSW     .8              .8              .8              .8          
          CJ    0               0               0               0            
        CJSW    0               0               0               0            
        CGSO    0               0               0               0            
        CGDO    0               0               0               0            
        CGBO    0               0               0               0            
         TOX  100.000000E-09    0             100.000000E-09    0            
          XJ    0               0               0               0            
       UCRIT   10.000000E+03   10.000000E+03   10.000000E+03   10.000000E+03 
      DIOMOD    1               1               1               1            
         VFB    0               0               0               0            
        LETA    0               0               0               0            
        WETA    0               0               0               0            
          U0    0               0               0               0            
        TEMP    0               0               0               0            
         VDD    5               5               5               5            
       XPART    0               0               0               0            



          JOB CONCLUDED

**** 11/27/22 12:55:51 ******* PSpice 17.4.0 (Nov 2018) ******* ID# 0 ********

 ** Profile: "SCHEMATIC1-A_ID_VDS"  [ c:\cadence\my projects\lab_analogcad_exp4\lab_analogcad_exp4-PSpiceFiles\SCHEMATIC1\A_ID_VDS.si


 ****     JOB STATISTICS SUMMARY


******************************************************************************



  License check-out time            =         .84
  Total job time (using Solver 1)   =         .25
